@<TRIPOS>MOLECULE
*****
 15 14 0 0 0
SMALL
GASTEIGER

@<TRIPOS>ATOM
      1 C           0.9326   -0.0396    0.0699 C.2     1  UNL1        0.3292
      2 C           0.2998    1.0160    0.8853 C.2     1  UNL1        0.0184
      3 O           0.3070   -1.0199   -0.3015 O.2     1  UNL1       -0.2458
      4 C           0.9053    1.9445    1.6422 C.2     1  UNL1       -0.0775
      5 O           2.2186    0.1794   -0.2588 O.3     1  UNL1       -0.4775
      6 C           0.1373    2.9512    2.4566 C.3     1  UNL1       -0.0371
      7 C           0.4670    4.3730    2.0332 C.3     1  UNL1       -0.0618
      8 H          -0.7867    0.9549    0.8629 H       1  UNL1        0.0686
      9 H           1.9831    1.9913    1.7394 H       1  UNL1        0.0574
     10 H           2.5640    1.0456    0.0150 H       1  UNL1        0.2954
     11 H           0.3901    2.8165    3.5156 H       1  UNL1        0.0305
     12 H          -0.9433    2.7909    2.3652 H       1  UNL1        0.0305
     13 H           1.5327    4.5890    2.1650 H       1  UNL1        0.0233
     14 H          -0.0997    5.0895    2.6365 H       1  UNL1        0.0233
     15 H           0.2125    4.5402    0.9810 H       1  UNL1        0.0233
@<TRIPOS>BOND
     1     2     1    1
     2     3     1    2
     3     4     2    2
     4     5     1    1
     5     6     4    1
     6     7     6    1
     7     2     8    1
     8     4     9    1
     9     5    10    1
    10     6    11    1
    11     6    12    1
    12     7    13    1
    13     7    14    1
    14     7    15    1
