*****
  PyMOL2.5          3D                             0

 15 14  0  0  0  0  0  0  0  0999 V2000
    4.2717    5.8402    0.4716 C   0  0  0  1  0  0  0  0  0  0  0  0
    3.2888    6.2997   -0.5022 C   0  0  0  1  0  0  0  0  0  0  0  0
    4.0407    5.8582    1.6694 O   0  0  0  1  0  0  0  0  0  0  0  0
    2.0557    6.6490   -0.2337 C   0  0  0  1  0  0  0  0  0  0  0  0
    5.3911    5.4192   -0.0415 O   0  0  0  1  0  0  0  0  0  0  0  0
    0.8588    6.5188   -1.1374 C   0  0  0  1  0  0  0  0  0  0  0  0
   -0.1738    5.5311   -0.6193 C   0  0  0  1  0  0  0  0  0  0  0  0
    3.5931    6.3547   -1.4952 H   0  0  0  1  0  0  0  0  0  0  0  0
    1.8846    7.0610    0.7057 H   0  0  0  1  0  0  0  0  0  0  0  0
    5.2946    4.5036   -0.3135 H   0  0  0  1  0  0  0  0  0  0  0  0
    1.1925    6.1895   -2.0993 H   0  0  0  1  0  0  0  0  0  0  0  0
    0.3956    7.4789   -1.2295 H   0  0  0  1  0  0  0  0  0  0  0  0
   -1.0395    5.5569   -1.2477 H   0  0  0  1  0  0  0  0  0  0  0  0
   -0.4506    5.7960    0.3797 H   0  0  0  1  0  0  0  0  0  0  0  0
    0.2416    4.5451   -0.6254 H   0  0  0  1  0  0  0  0  0  0  0  0
  1  2  1  0  0  0  0
  1  3  2  0  0  0  0
  1  5  1  0  0  0  0
  2  4  2  0  0  0  0
  2  8  1  0  0  0  0
  4  6  1  0  0  0  0
  4  9  1  0  0  0  0
  5 10  1  0  0  0  0
  6  7  1  0  0  0  0
  6 11  1  0  0  0  0
  6 12  1  0  0  0  0
  7 13  1  0  0  0  0
  7 14  1  0  0  0  0
  7 15  1  0  0  0  0
M  END
> <ConfClashScore>
0 

> <ConfOneFourInteractionScore>
-0.989347 

> <ConfScore>
0.473849 

> <ConfScorePBest>
0.00783383 

> <ConfTolerance>
0.0277395 

$$$$
*****
  PyMOL2.5          3D                             0

 15 14  0  0  0  0  0  0  0  0999 V2000
    4.3193    5.9155    0.3712 C   0  0  0  1  0  0  0  0  0  0  0  0
    3.2166    6.1218   -0.5599 C   0  0  0  1  0  0  0  0  0  0  0  0
    4.3367    6.4501    1.4730 O   0  0  0  1  0  0  0  0  0  0  0  0
    2.1285    6.8118   -0.3137 C   0  0  0  1  0  0  0  0  0  0  0  0
    5.2608    5.1301   -0.0651 O   0  0  0  1  0  0  0  0  0  0  0  0
    0.7856    6.5328   -0.9104 C   0  0  0  1  0  0  0  0  0  0  0  0
   -0.2912    6.2890    0.1344 C   0  0  0  1  0  0  0  0  0  0  0  0
    3.2997    5.6844   -1.4997 H   0  0  0  1  0  0  0  0  0  0  0  0
    2.2053    7.6125    0.3455 H   0  0  0  1  0  0  0  0  0  0  0  0
    5.1266    4.2453    0.2822 H   0  0  0  1  0  0  0  0  0  0  0  0
    0.8620    5.6638   -1.5299 H   0  0  0  1  0  0  0  0  0  0  0  0
    0.4970    7.3727   -1.5073 H   0  0  0  1  0  0  0  0  0  0  0  0
   -1.2108    6.0392   -0.3521 H   0  0  0  1  0  0  0  0  0  0  0  0
   -0.4267    7.1743    0.7199 H   0  0  0  1  0  0  0  0  0  0  0  0
    0.0061    5.4819    0.7708 H   0  0  0  1  0  0  0  0  0  0  0  0
  1  2  1  0  0  0  0
  1  3  2  0  0  0  0
  1  5  1  0  0  0  0
  2  4  2  0  0  0  0
  2  8  1  0  0  0  0
  4  6  1  0  0  0  0
  4  9  1  0  0  0  0
  5 10  1  0  0  0  0
  6  7  1  0  0  0  0
  6 11  1  0  0  0  0
  6 12  1  0  0  0  0
  7 13  1  0  0  0  0
  7 14  1  0  0  0  0
  7 15  1  0  0  0  0
M  END
> <ConfClashScore>
0 

> <ConfOneFourInteractionScore>
-0.989347 

> <ConfScore>
0.473849 

> <ConfScorePBest>
0.00780535 

> <ConfTolerance>
0.0254656 

$$$$
*****
  PyMOL2.5          3D                             0

 15 14  0  0  0  0  0  0  0  0999 V2000
    4.3903    5.8905    0.1906 C   0  0  0  1  0  0  0  0  0  0  0  0
    3.0916    5.8540   -0.4718 C   0  0  0  1  0  0  0  0  0  0  0  0
    4.8047    7.0095    0.5437 O   0  0  0  1  0  0  0  0  0  0  0  0
    2.3086    6.9277   -0.5824 C   0  0  0  1  0  0  0  0  0  0  0  0
    4.9616    4.7845    0.3384 O   0  0  0  1  0  0  0  0  0  0  0  0
    0.8070    6.7285   -0.6124 C   0  0  0  1  0  0  0  0  0  0  0  0
    0.2130    7.3258    0.6528 C   0  0  0  1  0  0  0  0  0  0  0  0
    2.7625    4.9534   -0.8746 H   0  0  0  1  0  0  0  0  0  0  0  0
    2.7197    7.8809   -0.6466 H   0  0  0  1  0  0  0  0  0  0  0  0
    4.8333    4.4753    1.2382 H   0  0  0  1  0  0  0  0  0  0  0  0
    0.5830    5.6831   -0.6569 H   0  0  0  1  0  0  0  0  0  0  0  0
    0.3956    7.2187   -1.4699 H   0  0  0  1  0  0  0  0  0  0  0  0
   -0.8549    7.3099    0.5880 H   0  0  0  1  0  0  0  0  0  0  0  0
    0.5485    8.3360    0.7615 H   0  0  0  1  0  0  0  0  0  0  0  0
    0.5274    6.7520    1.4994 H   0  0  0  1  0  0  0  0  0  0  0  0
  1  2  1  0  0  0  0
  1  3  2  0  0  0  0
  1  5  1  0  0  0  0
  2  4  2  0  0  0  0
  2  8  1  0  0  0  0
  4  6  1  0  0  0  0
  4  9  1  0  0  0  0
  5 10  1  0  0  0  0
  6  7  1  0  0  0  0
  6 11  1  0  0  0  0
  6 12  1  0  0  0  0
  7 13  1  0  0  0  0
  7 14  1  0  0  0  0
  7 15  1  0  0  0  0
M  END
> <ConfClashScore>
0 

> <ConfOneFourInteractionScore>
-0.989347 

> <ConfScore>
0.473849 

> <ConfScorePBest>
0.00777687 

> <ConfTolerance>
0.055724 

$$$$
*****
  PyMOL2.5          3D                             0

 15 14  0  0  0  0  0  0  0  0999 V2000
    4.2759    5.8732    0.4406 C   0  0  0  1  0  0  0  0  0  0  0  0
    3.2416    6.1573   -0.5476 C   0  0  0  1  0  0  0  0  0  0  0  0
    4.1102    6.1124    1.6254 O   0  0  0  1  0  0  0  0  0  0  0  0
    2.1021    6.7777   -0.2401 C   0  0  0  1  0  0  0  0  0  0  0  0
    5.3656    5.3537   -0.0455 O   0  0  0  1  0  0  0  0  0  0  0  0
    0.8303    6.4897   -0.9894 C   0  0  0  1  0  0  0  0  0  0  0  0
   -0.3828    6.1914   -0.1235 C   0  0  0  1  0  0  0  0  0  0  0  0
    3.3993    5.8639   -1.5328 H   0  0  0  1  0  0  0  0  0  0  0  0
    2.0926    7.4739    0.5325 H   0  0  0  1  0  0  0  0  0  0  0  0
    5.2615    4.4023   -0.1200 H   0  0  0  1  0  0  0  0  0  0  0  0
    1.0030    5.6420   -1.6190 H   0  0  0  1  0  0  0  0  0  0  0  0
    0.6027    7.3429   -1.5937 H   0  0  0  1  0  0  0  0  0  0  0  0
   -1.2589    6.1545   -0.7367 H   0  0  0  1  0  0  0  0  0  0  0  0
   -0.4942    6.9611    0.6113 H   0  0  0  1  0  0  0  0  0  0  0  0
   -0.2493    5.2485    0.3643 H   0  0  0  1  0  0  0  0  0  0  0  0
  1  2  1  0  0  0  0
  1  3  2  0  0  0  0
  1  5  1  0  0  0  0
  2  4  2  0  0  0  0
  2  8  1  0  0  0  0
  4  6  1  0  0  0  0
  4  9  1  0  0  0  0
  5 10  1  0  0  0  0
  6  7  1  0  0  0  0
  6 11  1  0  0  0  0
  6 12  1  0  0  0  0
  7 13  1  0  0  0  0
  7 14  1  0  0  0  0
  7 15  1  0  0  0  0
M  END
> <ConfClashScore>
0 

> <ConfOneFourInteractionScore>
-0.989347 

> <ConfScore>
0.473849 

> <ConfScorePBest>
0.00774839 

> <ConfTolerance>
0.036629 

$$$$
*****
  PyMOL2.5          3D                             0

 15 14  0  0  0  0  0  0  0  0999 V2000
    4.3031    5.7977    0.4717 C   0  0  0  1  0  0  0  0  0  0  0  0
    3.2830    6.3004   -0.4441 C   0  0  0  1  0  0  0  0  0  0  0  0
    3.9866    5.7209    1.6669 O   0  0  0  1  0  0  0  0  0  0  0  0
    2.0359    6.6387   -0.2318 C   0  0  0  1  0  0  0  0  0  0  0  0
    5.4029    5.4926   -0.0469 O   0  0  0  1  0  0  0  0  0  0  0  0
    0.8913    6.5409   -1.2047 C   0  0  0  1  0  0  0  0  0  0  0  0
   -0.3300    5.7896   -0.7004 C   0  0  0  1  0  0  0  0  0  0  0  0
    3.5995    6.4077   -1.4289 H   0  0  0  1  0  0  0  0  0  0  0  0
    1.8119    7.0159    0.7111 H   0  0  0  1  0  0  0  0  0  0  0  0
    5.3651    4.5895   -0.3704 H   0  0  0  1  0  0  0  0  0  0  0  0
    1.2460    6.0427   -2.0826 H   0  0  0  1  0  0  0  0  0  0  0  0
    0.5865    7.5351   -1.4567 H   0  0  0  1  0  0  0  0  0  0  0  0
   -0.0401    4.8109   -0.3797 H   0  0  0  1  0  0  0  0  0  0  0  0
   -1.0489    5.7081   -1.4887 H   0  0  0  1  0  0  0  0  0  0  0  0
   -0.7608    6.3211    0.1223 H   0  0  0  1  0  0  0  0  0  0  0  0
  1  2  1  0  0  0  0
  1  3  2  0  0  0  0
  1  5  1  0  0  0  0
  2  4  2  0  0  0  0
  2  8  1  0  0  0  0
  4  6  1  0  0  0  0
  4  9  1  0  0  0  0
  5 10  1  0  0  0  0
  6  7  1  0  0  0  0
  6 11  1  0  0  0  0
  6 12  1  0  0  0  0
  7 13  1  0  0  0  0
  7 14  1  0  0  0  0
  7 15  1  0  0  0  0
M  END
> <ConfClashScore>
0 

> <ConfOneFourInteractionScore>
-0.989347 

> <ConfScore>
0.473849 

> <ConfScorePBest>
0.00771991 

> <ConfTolerance>
0.0449401 

$$$$
*****
  PyMOL2.5          3D                             0

 15 14  0  0  0  0  0  0  0  0999 V2000
    4.2723    5.8484    0.4674 C   0  0  0  1  0  0  0  0  0  0  0  0
    3.2698    6.2375   -0.5170 C   0  0  0  1  0  0  0  0  0  0  0  0
    4.0604    5.9427    1.6700 O   0  0  0  1  0  0  0  0  0  0  0  0
    2.0734    6.6958   -0.2462 C   0  0  0  1  0  0  0  0  0  0  0  0
    5.3861    5.4023   -0.0366 O   0  0  0  1  0  0  0  0  0  0  0  0
    0.8287    6.5243   -1.0728 C   0  0  0  1  0  0  0  0  0  0  0  0
   -0.3167    5.8908   -0.3000 C   0  0  0  1  0  0  0  0  0  0  0  0
    3.5269    6.1430   -1.5203 H   0  0  0  1  0  0  0  0  0  0  0  0
    1.9731    7.2370    0.6362 H   0  0  0  1  0  0  0  0  0  0  0  0
    5.2884    4.4732   -0.2577 H   0  0  0  1  0  0  0  0  0  0  0  0
    1.0598    5.9009   -1.9112 H   0  0  0  1  0  0  0  0  0  0  0  0
    0.5146    7.4868   -1.4192 H   0  0  0  1  0  0  0  0  0  0  0  0
   -0.4085    6.3648    0.6549 H   0  0  0  1  0  0  0  0  0  0  0  0
   -0.1203    4.8480   -0.1629 H   0  0  0  1  0  0  0  0  0  0  0  0
   -1.2274    6.0138   -0.8480 H   0  0  0  1  0  0  0  0  0  0  0  0
  1  2  1  0  0  0  0
  1  3  2  0  0  0  0
  1  5  1  0  0  0  0
  2  4  2  0  0  0  0
  2  8  1  0  0  0  0
  4  6  1  0  0  0  0
  4  9  1  0  0  0  0
  5 10  1  0  0  0  0
  6  7  1  0  0  0  0
  6 11  1  0  0  0  0
  6 12  1  0  0  0  0
  7 13  1  0  0  0  0
  7 14  1  0  0  0  0
  7 15  1  0  0  0  0
M  END
> <ConfClashScore>
0 

> <ConfOneFourInteractionScore>
-0.989347 

> <ConfScore>
0.473849 

> <ConfScorePBest>
0.00769143 

> <ConfTolerance>
0.024903 

$$$$
*****
  PyMOL2.5          3D                             0

 15 14  0  0  0  0  0  0  0  0999 V2000
    4.2888    5.8742    0.4110 C   0  0  0  1  0  0  0  0  0  0  0  0
    3.2186    6.1201   -0.5480 C   0  0  0  1  0  0  0  0  0  0  0  0
    4.0768    6.1376    1.6028 O   0  0  0  1  0  0  0  0  0  0  0  0
    2.1090    6.7357   -0.2965 C   0  0  0  1  0  0  0  0  0  0  0  0
    5.3710    5.4041   -0.0443 O   0  0  0  1  0  0  0  0  0  0  0  0
    0.7471    6.5468   -0.9093 C   0  0  0  1  0  0  0  0  0  0  0  0
   -0.2519    5.9119    0.0442 C   0  0  0  1  0  0  0  0  0  0  0  0
    3.3593    5.7706   -1.5174 H   0  0  0  1  0  0  0  0  0  0  0  0
    2.1664    7.4700    0.4378 H   0  0  0  1  0  0  0  0  0  0  0  0
    5.3420    4.4451   -0.0131 H   0  0  0  1  0  0  0  0  0  0  0  0
    0.8448    5.9173   -1.7690 H   0  0  0  1  0  0  0  0  0  0  0  0
    0.3723    7.5035   -1.2078 H   0  0  0  1  0  0  0  0  0  0  0  0
   -1.2232    5.9112   -0.4046 H   0  0  0  1  0  0  0  0  0  0  0  0
   -0.2807    6.4723    0.9553 H   0  0  0  1  0  0  0  0  0  0  0  0
    0.0449    4.9054    0.2532 H   0  0  0  1  0  0  0  0  0  0  0  0
  1  2  1  0  0  0  0
  1  3  2  0  0  0  0
  1  5  1  0  0  0  0
  2  4  2  0  0  0  0
  2  8  1  0  0  0  0
  4  6  1  0  0  0  0
  4  9  1  0  0  0  0
  5 10  1  0  0  0  0
  6  7  1  0  0  0  0
  6 11  1  0  0  0  0
  6 12  1  0  0  0  0
  7 13  1  0  0  0  0
  7 14  1  0  0  0  0
  7 15  1  0  0  0  0
M  END
> <ConfClashScore>
0 

> <ConfOneFourInteractionScore>
-0.989347 

> <ConfScore>
0.473849 

> <ConfScorePBest>
0.00766295 

> <ConfTolerance>
0.02951 

$$$$
*****
  PyMOL2.5          3D                             0

 15 14  0  0  0  0  0  0  0  0999 V2000
    4.2914    5.8644    0.4324 C   0  0  0  1  0  0  0  0  0  0  0  0
    3.2330    6.1973   -0.5160 C   0  0  0  1  0  0  0  0  0  0  0  0
    4.1655    6.0726    1.6328 O   0  0  0  1  0  0  0  0  0  0  0  0
    2.0736    6.7564   -0.2635 C   0  0  0  1  0  0  0  0  0  0  0  0
    5.3555    5.3388   -0.1015 O   0  0  0  1  0  0  0  0  0  0  0  0
    0.8114    6.5118   -1.0464 C   0  0  0  1  0  0  0  0  0  0  0  0
   -0.3290    5.9876   -0.1889 C   0  0  0  1  0  0  0  0  0  0  0  0
    3.4207    5.9631   -1.5118 H   0  0  0  1  0  0  0  0  0  0  0  0
    2.0226    7.4179    0.5374 H   0  0  0  1  0  0  0  0  0  0  0  0
    5.3055    4.3820   -0.0404 H   0  0  0  1  0  0  0  0  0  0  0  0
    1.0193    5.7941   -1.8123 H   0  0  0  1  0  0  0  0  0  0  0  0
    0.5045    7.4337   -1.4946 H   0  0  0  1  0  0  0  0  0  0  0  0
   -0.4345    6.6029    0.6801 H   0  0  0  1  0  0  0  0  0  0  0  0
   -0.1173    4.9822    0.1098 H   0  0  0  1  0  0  0  0  0  0  0  0
   -1.2379    6.0086   -0.7531 H   0  0  0  1  0  0  0  0  0  0  0  0
  1  2  1  0  0  0  0
  1  3  2  0  0  0  0
  1  5  1  0  0  0  0
  2  4  2  0  0  0  0
  2  8  1  0  0  0  0
  4  6  1  0  0  0  0
  4  9  1  0  0  0  0
  5 10  1  0  0  0  0
  6  7  1  0  0  0  0
  6 11  1  0  0  0  0
  6 12  1  0  0  0  0
  7 13  1  0  0  0  0
  7 14  1  0  0  0  0
  7 15  1  0  0  0  0
M  END
> <ConfClashScore>
0 

> <ConfOneFourInteractionScore>
-0.989347 

> <ConfScore>
0.473849 

> <ConfScorePBest>
0.00763447 

> <ConfTolerance>
0.0317774 

$$$$
*****
  PyMOL2.5          3D                             0

 15 14  0  0  0  0  0  0  0  0999 V2000
    4.3737    5.8966    0.3244 C   0  0  0  1  0  0  0  0  0  0  0  0
    3.2067    6.0933   -0.5309 C   0  0  0  1  0  0  0  0  0  0  0  0
    4.5086    6.6404    1.3128 O   0  0  0  1  0  0  0  0  0  0  0  0
    2.1500    6.8506   -0.3740 C   0  0  0  1  0  0  0  0  0  0  0  0
    5.1754    4.9743   -0.0014 O   0  0  0  1  0  0  0  0  0  0  0  0
    0.7688    6.5876   -0.8842 C   0  0  0  1  0  0  0  0  0  0  0  0
    0.2012    7.7449   -1.6898 C   0  0  0  1  0  0  0  0  0  0  0  0
    3.2163    5.5397   -1.4112 H   0  0  0  1  0  0  0  0  0  0  0  0
    2.2859    7.7304    0.1637 H   0  0  0  1  0  0  0  0  0  0  0  0
    4.9939    4.1915    0.5239 H   0  0  0  1  0  0  0  0  0  0  0  0
    0.1256    6.4067   -0.0484 H   0  0  0  1  0  0  0  0  0  0  0  0
    0.7960    5.7190   -1.5085 H   0  0  0  1  0  0  0  0  0  0  0  0
    0.8008    7.9007   -2.5622 H   0  0  0  1  0  0  0  0  0  0  0  0
    0.2055    8.6318   -1.0913 H   0  0  0  1  0  0  0  0  0  0  0  0
   -0.8022    7.5168   -1.9831 H   0  0  0  1  0  0  0  0  0  0  0  0
  1  2  1  0  0  0  0
  1  3  2  0  0  0  0
  1  5  1  0  0  0  0
  2  4  2  0  0  0  0
  2  8  1  0  0  0  0
  4  6  1  0  0  0  0
  4  9  1  0  0  0  0
  5 10  1  0  0  0  0
  6  7  1  0  0  0  0
  6 11  1  0  0  0  0
  6 12  1  0  0  0  0
  7 13  1  0  0  0  0
  7 14  1  0  0  0  0
  7 15  1  0  0  0  0
M  END
> <ConfClashScore>
0 

> <ConfOneFourInteractionScore>
-0.989347 

> <ConfScore>
0.477315 

> <ConfScorePBest>
0.00760599 

> <ConfTolerance>
0.0294361 

$$$$
*****
  PyMOL2.5          3D                             0

 15 14  0  0  0  0  0  0  0  0999 V2000
    4.3656    5.8881    0.3486 C   0  0  0  1  0  0  0  0  0  0  0  0
    3.2250    6.1424   -0.5270 C   0  0  0  1  0  0  0  0  0  0  0  0
    4.4333    6.5156    1.4209 O   0  0  0  1  0  0  0  0  0  0  0  0
    2.1305    6.8371   -0.3270 C   0  0  0  1  0  0  0  0  0  0  0  0
    5.2150    5.0387   -0.0472 O   0  0  0  1  0  0  0  0  0  0  0  0
    0.7953    6.5395   -0.9554 C   0  0  0  1  0  0  0  0  0  0  0  0
    0.2810    7.7452   -1.7249 C   0  0  0  1  0  0  0  0  0  0  0  0
    3.2915    5.6990   -1.4653 H   0  0  0  1  0  0  0  0  0  0  0  0
    2.1894    7.6544    0.3133 H   0  0  0  1  0  0  0  0  0  0  0  0
    5.0337    4.1895    0.3622 H   0  0  0  1  0  0  0  0  0  0  0  0
    0.0942    6.2884   -0.1871 H   0  0  0  1  0  0  0  0  0  0  0  0
    0.9001    5.7132   -1.6271 H   0  0  0  1  0  0  0  0  0  0  0  0
   -0.7122    7.5504   -2.0718 H   0  0  0  1  0  0  0  0  0  0  0  0
    0.9205    7.9331   -2.5619 H   0  0  0  1  0  0  0  0  0  0  0  0
    0.2728    8.6009   -1.0825 H   0  0  0  1  0  0  0  0  0  0  0  0
  1  2  1  0  0  0  0
  1  3  2  0  0  0  0
  1  5  1  0  0  0  0
  2  4  2  0  0  0  0
  2  8  1  0  0  0  0
  4  6  1  0  0  0  0
  4  9  1  0  0  0  0
  5 10  1  0  0  0  0
  6  7  1  0  0  0  0
  6 11  1  0  0  0  0
  6 12  1  0  0  0  0
  7 13  1  0  0  0  0
  7 14  1  0  0  0  0
  7 15  1  0  0  0  0
M  END
> <ConfClashScore>
0 

> <ConfOneFourInteractionScore>
-0.989347 

> <ConfScore>
0.477315 

> <ConfScorePBest>
0.00757751 

> <ConfTolerance>
0.040662 

$$$$
*****
  PyMOL2.5          3D                             0

 15 14  0  0  0  0  0  0  0  0999 V2000
    4.2708    5.8489    0.4648 C   0  0  0  1  0  0  0  0  0  0  0  0
    3.2509    6.2117   -0.5118 C   0  0  0  1  0  0  0  0  0  0  0  0
    4.0770    5.9628    1.6594 O   0  0  0  1  0  0  0  0  0  0  0  0
    2.0758    6.7345   -0.2336 C   0  0  0  1  0  0  0  0  0  0  0  0
    5.3861    5.4007   -0.0497 O   0  0  0  1  0  0  0  0  0  0  0  0
    0.8564    6.5007   -1.0677 C   0  0  0  1  0  0  0  0  0  0  0  0
    0.4371    7.7245   -1.8656 C   0  0  0  1  0  0  0  0  0  0  0  0
    3.4710    6.0429   -1.5141 H   0  0  0  1  0  0  0  0  0  0  0  0
    1.9907    7.3401    0.6075 H   0  0  0  1  0  0  0  0  0  0  0  0
    5.3005    4.4620   -0.2318 H   0  0  0  1  0  0  0  0  0  0  0  0
    0.0501    6.2227   -0.4216 H   0  0  0  1  0  0  0  0  0  0  0  0
    1.0588    5.7019   -1.7503 H   0  0  0  1  0  0  0  0  0  0  0  0
    1.1792    7.9397   -2.6058 H   0  0  0  1  0  0  0  0  0  0  0  0
    0.3370    8.5621   -1.2073 H   0  0  0  1  0  0  0  0  0  0  0  0
   -0.4999    7.5333   -2.3455 H   0  0  0  1  0  0  0  0  0  0  0  0
  1  2  1  0  0  0  0
  1  3  2  0  0  0  0
  1  5  1  0  0  0  0
  2  4  2  0  0  0  0
  2  8  1  0  0  0  0
  4  6  1  0  0  0  0
  4  9  1  0  0  0  0
  5 10  1  0  0  0  0
  6  7  1  0  0  0  0
  6 11  1  0  0  0  0
  6 12  1  0  0  0  0
  7 13  1  0  0  0  0
  7 14  1  0  0  0  0
  7 15  1  0  0  0  0
M  END
> <ConfClashScore>
0 

> <ConfOneFourInteractionScore>
-0.989347 

> <ConfScore>
0.477315 

> <ConfScorePBest>
0.00754903 

> <ConfTolerance>
0.0294268 

$$$$
*****
  PyMOL2.5          3D                             0

 15 14  0  0  0  0  0  0  0  0999 V2000
    4.2598    5.8134    0.4963 C   0  0  0  1  0  0  0  0  0  0  0  0
    3.2857    6.2806   -0.4827 C   0  0  0  1  0  0  0  0  0  0  0  0
    4.0018    5.7776    1.6836 O   0  0  0  1  0  0  0  0  0  0  0  0
    2.0595    6.6628   -0.2169 C   0  0  0  1  0  0  0  0  0  0  0  0
    5.4034    5.4470   -0.0054 O   0  0  0  1  0  0  0  0  0  0  0  0
    0.8915    6.5225   -1.1562 C   0  0  0  1  0  0  0  0  0  0  0  0
    0.2718    7.8565   -1.5392 C   0  0  0  1  0  0  0  0  0  0  0  0
    3.5892    6.3137   -1.4769 H   0  0  0  1  0  0  0  0  0  0  0  0
    1.8808    7.0951    0.7120 H   0  0  0  1  0  0  0  0  0  0  0  0
    5.3075    4.5917   -0.4306 H   0  0  0  1  0  0  0  0  0  0  0  0
    0.1430    5.9230   -0.6816 H   0  0  0  1  0  0  0  0  0  0  0  0
    1.2277    6.0348   -2.0472 H   0  0  0  1  0  0  0  0  0  0  0  0
   -0.5173    7.6947   -2.2434 H   0  0  0  1  0  0  0  0  0  0  0  0
    1.0191    8.4834   -1.9791 H   0  0  0  1  0  0  0  0  0  0  0  0
   -0.1225    8.3306   -0.6647 H   0  0  0  1  0  0  0  0  0  0  0  0
  1  2  1  0  0  0  0
  1  3  2  0  0  0  0
  1  5  1  0  0  0  0
  2  4  2  0  0  0  0
  2  8  1  0  0  0  0
  4  6  1  0  0  0  0
  4  9  1  0  0  0  0
  5 10  1  0  0  0  0
  6  7  1  0  0  0  0
  6 11  1  0  0  0  0
  6 12  1  0  0  0  0
  7 13  1  0  0  0  0
  7 14  1  0  0  0  0
  7 15  1  0  0  0  0
M  END
> <ConfClashScore>
0 

> <ConfOneFourInteractionScore>
-0.989347 

> <ConfScore>
0.477315 

> <ConfScorePBest>
0.00752055 

> <ConfTolerance>
0.022134 

$$$$
*****
  PyMOL2.5          3D                             0

 15 14  0  0  0  0  0  0  0  0999 V2000
    4.1716    5.6504    0.4924 C   0  0  0  1  0  0  0  0  0  0  0  0
    3.1050    5.9333   -0.4631 C   0  0  0  1  0  0  0  0  0  0  0  0
    4.1267    6.0638    1.6445 O   0  0  0  1  0  0  0  0  0  0  0  0
    2.1005    6.7617   -0.3229 C   0  0  0  1  0  0  0  0  0  0  0  0
    5.1510    4.9359    0.0194 O   0  0  0  1  0  0  0  0  0  0  0  0
    0.7290    6.6334   -0.9265 C   0  0  0  1  0  0  0  0  0  0  0  0
   -0.3635    6.4420    0.1129 C   0  0  0  1  0  0  0  0  0  0  0  0
    3.1479    5.4146   -1.3635 H   0  0  0  1  0  0  0  0  0  0  0  0
    2.2695    7.5991    0.2702 H   0  0  0  1  0  0  0  0  0  0  0  0
    5.8780    5.5122   -0.2275 H   0  0  0  1  0  0  0  0  0  0  0  0
    0.7242    5.7899   -1.5849 H   0  0  0  1  0  0  0  0  0  0  0  0
    0.5174    7.5223   -1.4833 H   0  0  0  1  0  0  0  0  0  0  0  0
   -0.1653    5.5569    0.6806 H   0  0  0  1  0  0  0  0  0  0  0  0
   -1.3095    6.3463   -0.3778 H   0  0  0  1  0  0  0  0  0  0  0  0
   -0.3847    7.2881    0.7676 H   0  0  0  1  0  0  0  0  0  0  0  0
  1  2  1  0  0  0  0
  1  3  2  0  0  0  0
  1  5  1  0  0  0  0
  2  4  2  0  0  0  0
  2  8  1  0  0  0  0
  4  6  1  0  0  0  0
  4  9  1  0  0  0  0
  5 10  1  0  0  0  0
  6  7  1  0  0  0  0
  6 11  1  0  0  0  0
  6 12  1  0  0  0  0
  7 13  1  0  0  0  0
  7 14  1  0  0  0  0
  7 15  1  0  0  0  0
M  END
> <ConfClashScore>
0 

> <ConfOneFourInteractionScore>
-0.989347 

> <ConfScore>
0.483415 

> <ConfScorePBest>
0.00749207 

> <ConfTolerance>
0.0342533 

$$$$
*****
  PyMOL2.5          3D                             0

 15 14  0  0  0  0  0  0  0  0999 V2000
    4.1441    5.6935    0.5118 C   0  0  0  1  0  0  0  0  0  0  0  0
    3.1269    5.9559   -0.4999 C   0  0  0  1  0  0  0  0  0  0  0  0
    4.1512    6.1352    1.6490 O   0  0  0  1  0  0  0  0  0  0  0  0
    2.1103    6.7581   -0.2914 C   0  0  0  1  0  0  0  0  0  0  0  0
    5.1168    4.8899    0.0703 O   0  0  0  1  0  0  0  0  0  0  0  0
    0.7533    6.6107   -0.9263 C   0  0  0  1  0  0  0  0  0  0  0  0
   -0.3360    6.2560    0.0727 C   0  0  0  1  0  0  0  0  0  0  0  0
    3.2111    5.4876   -1.4247 H   0  0  0  1  0  0  0  0  0  0  0  0
    2.2523    7.5554    0.3611 H   0  0  0  1  0  0  0  0  0  0  0  0
    5.8132    5.4179   -0.3269 H   0  0  0  1  0  0  0  0  0  0  0  0
    0.8045    5.8369   -1.6635 H   0  0  0  1  0  0  0  0  0  0  0  0
    0.4953    7.5362   -1.3972 H   0  0  0  1  0  0  0  0  0  0  0  0
   -0.2489    6.8844    0.9343 H   0  0  0  1  0  0  0  0  0  0  0  0
   -0.2310    5.2324    0.3660 H   0  0  0  1  0  0  0  0  0  0  0  0
   -1.2950    6.4016   -0.3791 H   0  0  0  1  0  0  0  0  0  0  0  0
  1  2  1  0  0  0  0
  1  3  2  0  0  0  0
  1  5  1  0  0  0  0
  2  4  2  0  0  0  0
  2  8  1  0  0  0  0
  4  6  1  0  0  0  0
  4  9  1  0  0  0  0
  5 10  1  0  0  0  0
  6  7  1  0  0  0  0
  6 11  1  0  0  0  0
  6 12  1  0  0  0  0
  7 13  1  0  0  0  0
  7 14  1  0  0  0  0
  7 15  1  0  0  0  0
M  END
> <ConfClashScore>
0 

> <ConfOneFourInteractionScore>
-0.989347 

> <ConfScore>
0.483415 

> <ConfScorePBest>
0.00746359 

> <ConfTolerance>
0.0315105 

$$$$
*****
  PyMOL2.5          3D                             0

 15 14  0  0  0  0  0  0  0  0999 V2000
    4.1802    5.6826    0.4688 C   0  0  0  1  0  0  0  0  0  0  0  0
    3.1223    5.9242   -0.5057 C   0  0  0  1  0  0  0  0  0  0  0  0
    4.1067    6.2589    1.5692 O   0  0  0  1  0  0  0  0  0  0  0  0
    2.1313    6.7617   -0.2865 C   0  0  0  1  0  0  0  0  0  0  0  0
    5.1089    4.8961    0.1249 O   0  0  0  1  0  0  0  0  0  0  0  0
    0.7524    6.5823   -0.8716 C   0  0  0  1  0  0  0  0  0  0  0  0
   -0.2802    6.3984    0.2285 C   0  0  0  1  0  0  0  0  0  0  0  0
    3.1523    5.4134   -1.4111 H   0  0  0  1  0  0  0  0  0  0  0  0
    2.3073    7.5880    0.3200 H   0  0  0  1  0  0  0  0  0  0  0  0
    5.8178    5.3971   -0.2849 H   0  0  0  1  0  0  0  0  0  0  0  0
    0.7491    5.7189   -1.5037 H   0  0  0  1  0  0  0  0  0  0  0  0
    0.5005    7.4479   -1.4480 H   0  0  0  1  0  0  0  0  0  0  0  0
   -1.2468    6.2590   -0.2086 H   0  0  0  1  0  0  0  0  0  0  0  0
   -0.2935    7.2667    0.8536 H   0  0  0  1  0  0  0  0  0  0  0  0
   -0.0271    5.5400    0.8150 H   0  0  0  1  0  0  0  0  0  0  0  0
  1  2  1  0  0  0  0
  1  3  2  0  0  0  0
  1  5  1  0  0  0  0
  2  4  2  0  0  0  0
  2  8  1  0  0  0  0
  4  6  1  0  0  0  0
  4  9  1  0  0  0  0
  5 10  1  0  0  0  0
  6  7  1  0  0  0  0
  6 11  1  0  0  0  0
  6 12  1  0  0  0  0
  7 13  1  0  0  0  0
  7 14  1  0  0  0  0
  7 15  1  0  0  0  0
M  END
> <ConfClashScore>
0 

> <ConfOneFourInteractionScore>
-0.989347 

> <ConfScore>
0.483415 

> <ConfScorePBest>
0.0074351 

> <ConfTolerance>
0.0441201 

$$$$
*****
  PyMOL2.5          3D                             0

 15 14  0  0  0  0  0  0  0  0999 V2000
    4.1878    5.6778    0.4883 C   0  0  0  1  0  0  0  0  0  0  0  0
    3.1535    5.9941   -0.4892 C   0  0  0  1  0  0  0  0  0  0  0  0
    4.1266    6.1970    1.6100 O   0  0  0  1  0  0  0  0  0  0  0  0
    2.1025    6.7482   -0.2718 C   0  0  0  1  0  0  0  0  0  0  0  0
    5.1311    4.8743    0.1659 O   0  0  0  1  0  0  0  0  0  0  0  0
    0.7697    6.5841   -0.9520 C   0  0  0  1  0  0  0  0  0  0  0  0
    0.2245    7.8862   -1.5155 C   0  0  0  1  0  0  0  0  0  0  0  0
    3.2579    5.5869   -1.4405 H   0  0  0  1  0  0  0  0  0  0  0  0
    2.1971    7.5169    0.4224 H   0  0  0  1  0  0  0  0  0  0  0  0
    5.7530    5.3250   -0.4100 H   0  0  0  1  0  0  0  0  0  0  0  0
    0.0688    6.2012   -0.2400 H   0  0  0  1  0  0  0  0  0  0  0  0
    0.8809    5.8856   -1.7549 H   0  0  0  1  0  0  0  0  0  0  0  0
    0.8542    8.2218   -2.3129 H   0  0  0  1  0  0  0  0  0  0  0  0
    0.2017    8.6268   -0.7436 H   0  0  0  1  0  0  0  0  0  0  0  0
   -0.7663    7.7267   -1.8868 H   0  0  0  1  0  0  0  0  0  0  0  0
  1  2  1  0  0  0  0
  1  3  2  0  0  0  0
  1  5  1  0  0  0  0
  2  4  2  0  0  0  0
  2  8  1  0  0  0  0
  4  6  1  0  0  0  0
  4  9  1  0  0  0  0
  5 10  1  0  0  0  0
  6  7  1  0  0  0  0
  6 11  1  0  0  0  0
  6 12  1  0  0  0  0
  7 13  1  0  0  0  0
  7 14  1  0  0  0  0
  7 15  1  0  0  0  0
M  END
> <ConfClashScore>
0 

> <ConfOneFourInteractionScore>
-0.989347 

> <ConfScore>
0.486881 

> <ConfScorePBest>
0.00740662 

> <ConfTolerance>
0.0307224 

$$$$
*****
  PyMOL2.5          3D                             0

 15 14  0  0  0  0  0  0  0  0999 V2000
    4.1814    5.6251    0.5222 C   0  0  0  1  0  0  0  0  0  0  0  0
    3.1402    6.0013   -0.4298 C   0  0  0  1  0  0  0  0  0  0  0  0
    4.1319    5.9706    1.6962 O   0  0  0  1  0  0  0  0  0  0  0  0
    2.0871    6.7703   -0.2873 C   0  0  0  1  0  0  0  0  0  0  0  0
    5.1437    4.9064    0.0211 O   0  0  0  1  0  0  0  0  0  0  0  0
    0.7910    6.6019   -1.0341 C   0  0  0  1  0  0  0  0  0  0  0  0
    0.4693    7.6985   -2.0363 C   0  0  0  1  0  0  0  0  0  0  0  0
    3.2521    5.5914   -1.3790 H   0  0  0  1  0  0  0  0  0  0  0  0
    2.1525    7.5547    0.3924 H   0  0  0  1  0  0  0  0  0  0  0  0
    5.7993    5.4826   -0.3785 H   0  0  0  1  0  0  0  0  0  0  0  0
   -0.0017    6.5681   -0.3161 H   0  0  0  1  0  0  0  0  0  0  0  0
    0.8333    5.6730   -1.5634 H   0  0  0  1  0  0  0  0  0  0  0  0
    1.1248    7.6166   -2.8780 H   0  0  0  1  0  0  0  0  0  0  0  0
    0.6012    8.6542   -1.5735 H   0  0  0  1  0  0  0  0  0  0  0  0
   -0.5445    7.5967   -2.3629 H   0  0  0  1  0  0  0  0  0  0  0  0
  1  2  1  0  0  0  0
  1  3  2  0  0  0  0
  1  5  1  0  0  0  0
  2  4  2  0  0  0  0
  2  8  1  0  0  0  0
  4  6  1  0  0  0  0
  4  9  1  0  0  0  0
  5 10  1  0  0  0  0
  6  7  1  0  0  0  0
  6 11  1  0  0  0  0
  6 12  1  0  0  0  0
  7 13  1  0  0  0  0
  7 14  1  0  0  0  0
  7 15  1  0  0  0  0
M  END
> <ConfClashScore>
0 

> <ConfOneFourInteractionScore>
-0.989347 

> <ConfScore>
0.486881 

> <ConfScorePBest>
0.00737814 

> <ConfTolerance>
0.0334403 

$$$$
*****
  PyMOL2.5          3D                             0

 15 14  0  0  0  0  0  0  0  0999 V2000
    4.1935    5.7133    0.4869 C   0  0  0  1  0  0  0  0  0  0  0  0
    3.1791    6.0124   -0.5174 C   0  0  0  1  0  0  0  0  0  0  0  0
    4.1615    6.3443    1.5589 O   0  0  0  1  0  0  0  0  0  0  0  0
    2.1155    6.7346   -0.2574 C   0  0  0  1  0  0  0  0  0  0  0  0
    5.0446    4.8242    0.1962 O   0  0  0  1  0  0  0  0  0  0  0  0
    0.7793    6.5725   -0.9314 C   0  0  0  1  0  0  0  0  0  0  0  0
    0.2398    7.8730   -1.5044 C   0  0  0  1  0  0  0  0  0  0  0  0
    3.3043    5.6376   -1.4794 H   0  0  0  1  0  0  0  0  0  0  0  0
    2.2017    7.4743    0.4686 H   0  0  0  1  0  0  0  0  0  0  0  0
    5.6998    5.1911   -0.4018 H   0  0  0  1  0  0  0  0  0  0  0  0
    0.0786    6.2002   -0.2135 H   0  0  0  1  0  0  0  0  0  0  0  0
    0.8833    5.8664   -1.7285 H   0  0  0  1  0  0  0  0  0  0  0  0
   -0.7619    7.7230   -1.8493 H   0  0  0  1  0  0  0  0  0  0  0  0
    0.8554    8.1845   -2.3223 H   0  0  0  1  0  0  0  0  0  0  0  0
    0.2463    8.6268   -0.7451 H   0  0  0  1  0  0  0  0  0  0  0  0
  1  2  1  0  0  0  0
  1  3  2  0  0  0  0
  1  5  1  0  0  0  0
  2  4  2  0  0  0  0
  2  8  1  0  0  0  0
  4  6  1  0  0  0  0
  4  9  1  0  0  0  0
  5 10  1  0  0  0  0
  6  7  1  0  0  0  0
  6 11  1  0  0  0  0
  6 12  1  0  0  0  0
  7 13  1  0  0  0  0
  7 14  1  0  0  0  0
  7 15  1  0  0  0  0
M  END
> <ConfClashScore>
0 

> <ConfOneFourInteractionScore>
-0.989347 

> <ConfScore>
0.486881 

> <ConfScorePBest>
0.00734966 

> <ConfTolerance>
0.0347038 

$$$$
*****
  PyMOL2.5          3D                             0

 15 14  0  0  0  0  0  0  0  0999 V2000
    4.1837    5.7269    0.4414 C   0  0  0  1  0  0  0  0  0  0  0  0
    3.1077    5.9332   -0.5211 C   0  0  0  1  0  0  0  0  0  0  0  0
    4.2148    6.4287    1.4602 O   0  0  0  1  0  0  0  0  0  0  0  0
    2.1133    6.7611   -0.3060 C   0  0  0  1  0  0  0  0  0  0  0  0
    5.0672    4.8291    0.2117 O   0  0  0  1  0  0  0  0  0  0  0  0
    0.7181    6.5889   -0.8442 C   0  0  0  1  0  0  0  0  0  0  0  0
    0.3403    7.5196   -1.9850 C   0  0  0  1  0  0  0  0  0  0  0  0
    3.1296    5.4020   -1.4150 H   0  0  0  1  0  0  0  0  0  0  0  0
    2.3030    7.5991    0.2800 H   0  0  0  1  0  0  0  0  0  0  0  0
    5.8417    5.2355   -0.1839 H   0  0  0  1  0  0  0  0  0  0  0  0
    0.0314    6.7559   -0.0408 H   0  0  0  1  0  0  0  0  0  0  0  0
    0.6210    5.5822   -1.1936 H   0  0  0  1  0  0  0  0  0  0  0  0
   -0.5859    7.1999   -2.4151 H   0  0  0  1  0  0  0  0  0  0  0  0
    1.1064    7.4974   -2.7317 H   0  0  0  1  0  0  0  0  0  0  0  0
    0.2344    8.5166   -1.6114 H   0  0  0  1  0  0  0  0  0  0  0  0
  1  2  1  0  0  0  0
  1  3  2  0  0  0  0
  1  5  1  0  0  0  0
  2  4  2  0  0  0  0
  2  8  1  0  0  0  0
  4  6  1  0  0  0  0
  4  9  1  0  0  0  0
  5 10  1  0  0  0  0
  6  7  1  0  0  0  0
  6 11  1  0  0  0  0
  6 12  1  0  0  0  0
  7 13  1  0  0  0  0
  7 14  1  0  0  0  0
  7 15  1  0  0  0  0
M  END
> <ConfClashScore>
0 

> <ConfOneFourInteractionScore>
-0.989347 

> <ConfScore>
0.486881 

> <ConfScorePBest>
0.00732118 

> <ConfTolerance>
0.0374965 

$$$$
*****
  PyMOL2.5          3D                             0

 15 14  0  0  0  0  0  0  0  0999 V2000
    4.2318    5.7241    0.5584 C   0  0  0  1  0  0  0  0  0  0  0  0
    3.2867    6.2656   -0.4133 C   0  0  0  1  0  0  0  0  0  0  0  0
    3.9610    5.5292    1.7273 O   0  0  0  1  0  0  0  0  0  0  0  0
    2.0402    6.6797   -0.1963 C   0  0  0  1  0  0  0  0  0  0  0  0
    5.4207    5.4610    0.0520 O   0  0  0  1  0  0  0  0  0  0  0  0
    0.9915    6.5732   -1.2575 C   0  0  0  1  0  0  0  0  0  0  0  0
   -0.1456    5.6108   -0.9556 C   0  0  0  1  0  0  0  0  0  0  0  0
    3.6282    6.3364   -1.3931 H   0  0  0  1  0  0  0  0  0  0  0  0
    1.7909    7.0849    0.7285 H   0  0  0  1  0  0  0  0  0  0  0  0
    5.3280    4.8504   -0.6829 H   0  0  0  1  0  0  0  0  0  0  0  0
    1.4668    6.2497   -2.1600 H   0  0  0  1  0  0  0  0  0  0  0  0
    0.5706    7.5458   -1.4044 H   0  0  0  1  0  0  0  0  0  0  0  0
    0.2496    4.6288   -0.7992 H   0  0  0  1  0  0  0  0  0  0  0  0
   -0.8266    5.5937   -1.7806 H   0  0  0  1  0  0  0  0  0  0  0  0
   -0.6602    5.9324   -0.0743 H   0  0  0  1  0  0  0  0  0  0  0  0
  1  2  1  0  0  0  0
  1  3  2  0  0  0  0
  1  5  1  0  0  0  0
  2  4  2  0  0  0  0
  2  8  1  0  0  0  0
  4  6  1  0  0  0  0
  4  9  1  0  0  0  0
  5 10  1  0  0  0  0
  6  7  1  0  0  0  0
  6 11  1  0  0  0  0
  6 12  1  0  0  0  0
  7 13  1  0  0  0  0
  7 14  1  0  0  0  0
  7 15  1  0  0  0  0
M  END
> <ConfClashScore>
0 

> <ConfOneFourInteractionScore>
-0.989347 

> <ConfScore>
0.496387 

> <ConfScorePBest>
0.0072927 

> <ConfTolerance>
0.0460599 

$$$$
*****
  PyMOL2.5          3D                             0

 15 14  0  0  0  0  0  0  0  0999 V2000
    4.1740    5.6756    0.5519 C   0  0  0  1  0  0  0  0  0  0  0  0
    3.2334    6.0613   -0.4938 C   0  0  0  1  0  0  0  0  0  0  0  0
    4.0194    6.0275    1.7149 O   0  0  0  1  0  0  0  0  0  0  0  0
    2.1179    6.6994   -0.2421 C   0  0  0  1  0  0  0  0  0  0  0  0
    5.1685    4.9411    0.1460 O   0  0  0  1  0  0  0  0  0  0  0  0
    0.8280    6.6100   -1.0129 C   0  0  0  1  0  0  0  0  0  0  0  0
   -0.3025    5.9855   -0.2115 C   0  0  0  1  0  0  0  0  0  0  0  0
    3.4578    5.8196   -1.4801 H   0  0  0  1  0  0  0  0  0  0  0  0
    2.1239    7.3371    0.5794 H   0  0  0  1  0  0  0  0  0  0  0  0
    5.5562    5.3327   -0.6401 H   0  0  0  1  0  0  0  0  0  0  0  0
    0.9942    6.0160   -1.8873 H   0  0  0  1  0  0  0  0  0  0  0  0
    0.5351    7.5976   -1.3025 H   0  0  0  1  0  0  0  0  0  0  0  0
   -1.1340    5.7932   -0.8568 H   0  0  0  1  0  0  0  0  0  0  0  0
   -0.6022    6.6576    0.5654 H   0  0  0  1  0  0  0  0  0  0  0  0
    0.0329    5.0662    0.2213 H   0  0  0  1  0  0  0  0  0  0  0  0
  1  2  1  0  0  0  0
  1  3  2  0  0  0  0
  1  5  1  0  0  0  0
  2  4  2  0  0  0  0
  2  8  1  0  0  0  0
  4  6  1  0  0  0  0
  4  9  1  0  0  0  0
  5 10  1  0  0  0  0
  6  7  1  0  0  0  0
  6 11  1  0  0  0  0
  6 12  1  0  0  0  0
  7 13  1  0  0  0  0
  7 14  1  0  0  0  0
  7 15  1  0  0  0  0
M  END
> <ConfClashScore>
0 

> <ConfOneFourInteractionScore>
-0.989347 

> <ConfScore>
0.497661 

> <ConfScorePBest>
0.00726422 

> <ConfTolerance>
0.0263594 

$$$$
*****
  PyMOL2.5          3D                             0

 15 14  0  0  0  0  0  0  0  0999 V2000
    4.2507    5.7898    0.5149 C   0  0  0  1  0  0  0  0  0  0  0  0
    3.2528    6.1956   -0.4701 C   0  0  0  1  0  0  0  0  0  0  0  0
    3.9868    5.7314    1.7046 O   0  0  0  1  0  0  0  0  0  0  0  0
    2.0708    6.7137   -0.2488 C   0  0  0  1  0  0  0  0  0  0  0  0
    5.4195    5.5029    0.0198 O   0  0  0  1  0  0  0  0  0  0  0  0
    0.8389    6.5594   -1.1001 C   0  0  0  1  0  0  0  0  0  0  0  0
    0.1266    7.8274   -1.5421 C   0  0  0  1  0  0  0  0  0  0  0  0
    3.5118    6.0565   -1.4677 H   0  0  0  1  0  0  0  0  0  0  0  0
    1.9723    7.2949    0.6081 H   0  0  0  1  0  0  0  0  0  0  0  0
    5.3756    4.6600   -0.4377 H   0  0  0  1  0  0  0  0  0  0  0  0
    0.1363    5.9749   -0.5436 H   0  0  0  1  0  0  0  0  0  0  0  0
    1.1249    6.0282   -1.9838 H   0  0  0  1  0  0  0  0  0  0  0  0
    0.8404    8.5177   -1.9406 H   0  0  0  1  0  0  0  0  0  0  0  0
   -0.3670    8.2701   -0.7023 H   0  0  0  1  0  0  0  0  0  0  0  0
   -0.5951    7.5868   -2.2946 H   0  0  0  1  0  0  0  0  0  0  0  0
  1  2  1  0  0  0  0
  1  3  2  0  0  0  0
  1  5  1  0  0  0  0
  2  4  2  0  0  0  0
  2  8  1  0  0  0  0
  4  6  1  0  0  0  0
  4  9  1  0  0  0  0
  5 10  1  0  0  0  0
  6  7  1  0  0  0  0
  6 11  1  0  0  0  0
  6 12  1  0  0  0  0
  7 13  1  0  0  0  0
  7 14  1  0  0  0  0
  7 15  1  0  0  0  0
M  END
> <ConfClashScore>
0 

> <ConfOneFourInteractionScore>
-0.989347 

> <ConfScore>
0.499853 

> <ConfScorePBest>
0.00723574 

> <ConfTolerance>
0.0387544 

$$$$
*****
  PyMOL2.5          3D                             0

 15 14  0  0  0  0  0  0  0  0999 V2000
    4.2385    5.7262    0.5503 C   0  0  0  1  0  0  0  0  0  0  0  0
    3.2944    6.2746   -0.4185 C   0  0  0  1  0  0  0  0  0  0  0  0
    3.9215    5.5341    1.7126 O   0  0  0  1  0  0  0  0  0  0  0  0
    2.0529    6.6437   -0.2114 C   0  0  0  1  0  0  0  0  0  0  0  0
    5.4208    5.4672    0.0721 O   0  0  0  1  0  0  0  0  0  0  0  0
    0.9533    6.5797   -1.2374 C   0  0  0  1  0  0  0  0  0  0  0  0
    0.2926    7.9257   -1.4868 C   0  0  0  1  0  0  0  0  0  0  0  0
    3.6488    6.3861   -1.3899 H   0  0  0  1  0  0  0  0  0  0  0  0
    1.8101    7.0077    0.7321 H   0  0  0  1  0  0  0  0  0  0  0  0
    5.3390    4.8850   -0.6868 H   0  0  0  1  0  0  0  0  0  0  0  0
    0.2078    5.8926   -0.8953 H   0  0  0  1  0  0  0  0  0  0  0  0
    1.3675    6.2277   -2.1590 H   0  0  0  1  0  0  0  0  0  0  0  0
    1.0272    8.6274   -1.8229 H   0  0  0  1  0  0  0  0  0  0  0  0
   -0.1491    8.2796   -0.5788 H   0  0  0  1  0  0  0  0  0  0  0  0
   -0.4654    7.8177   -2.2343 H   0  0  0  1  0  0  0  0  0  0  0  0
  1  2  1  0  0  0  0
  1  3  2  0  0  0  0
  1  5  1  0  0  0  0
  2  4  2  0  0  0  0
  2  8  1  0  0  0  0
  4  6  1  0  0  0  0
  4  9  1  0  0  0  0
  5 10  1  0  0  0  0
  6  7  1  0  0  0  0
  6 11  1  0  0  0  0
  6 12  1  0  0  0  0
  7 13  1  0  0  0  0
  7 14  1  0  0  0  0
  7 15  1  0  0  0  0
M  END
> <ConfClashScore>
0 

> <ConfOneFourInteractionScore>
-0.989347 

> <ConfScore>
0.499853 

> <ConfScorePBest>
0.00720726 

> <ConfTolerance>
0.0310049 

$$$$
*****
  PyMOL2.5          3D                             0

 15 14  0  0  0  0  0  0  0  0999 V2000
    4.2245    5.7547    0.5437 C   0  0  0  1  0  0  0  0  0  0  0  0
    3.2999    6.2899   -0.4485 C   0  0  0  1  0  0  0  0  0  0  0  0
    3.9329    5.5734    1.7098 O   0  0  0  1  0  0  0  0  0  0  0  0
    2.0549    6.6287   -0.2253 C   0  0  0  1  0  0  0  0  0  0  0  0
    5.4205    5.4807    0.0604 O   0  0  0  1  0  0  0  0  0  0  0  0
    0.9106    6.5724   -1.2017 C   0  0  0  1  0  0  0  0  0  0  0  0
    0.1870    7.9011   -1.3482 C   0  0  0  1  0  0  0  0  0  0  0  0
    3.6601    6.4131   -1.4163 H   0  0  0  1  0  0  0  0  0  0  0  0
    1.8325    6.9742    0.7301 H   0  0  0  1  0  0  0  0  0  0  0  0
    5.3433    4.8171   -0.6290 H   0  0  0  1  0  0  0  0  0  0  0  0
    0.2096    5.8384   -0.8630 H   0  0  0  1  0  0  0  0  0  0  0  0
    1.2934    6.2858   -2.1589 H   0  0  0  1  0  0  0  0  0  0  0  0
    0.8553    8.6284   -1.7596 H   0  0  0  1  0  0  0  0  0  0  0  0
   -0.1511    8.2306   -0.3880 H   0  0  0  1  0  0  0  0  0  0  0  0
   -0.6527    7.7796   -2.0002 H   0  0  0  1  0  0  0  0  0  0  0  0
  1  2  1  0  0  0  0
  1  3  2  0  0  0  0
  1  5  1  0  0  0  0
  2  4  2  0  0  0  0
  2  8  1  0  0  0  0
  4  6  1  0  0  0  0
  4  9  1  0  0  0  0
  5 10  1  0  0  0  0
  6  7  1  0  0  0  0
  6 11  1  0  0  0  0
  6 12  1  0  0  0  0
  7 13  1  0  0  0  0
  7 14  1  0  0  0  0
  7 15  1  0  0  0  0
M  END
> <ConfClashScore>
0 

> <ConfOneFourInteractionScore>
-0.989347 

> <ConfScore>
0.499853 

> <ConfScorePBest>
0.00717878 

> <ConfTolerance>
0.0301675 

$$$$
*****
  PyMOL2.5          3D                             0

 15 14  0  0  0  0  0  0  0  0999 V2000
    4.1703    5.6262    0.5673 C   0  0  0  1  0  0  0  0  0  0  0  0
    3.1995    5.9951   -0.4558 C   0  0  0  1  0  0  0  0  0  0  0  0
    3.9756    5.8666    1.7524 O   0  0  0  1  0  0  0  0  0  0  0  0
    2.1336    6.7315   -0.2649 C   0  0  0  1  0  0  0  0  0  0  0  0
    5.2372    5.0324    0.1169 O   0  0  0  1  0  0  0  0  0  0  0  0
    0.8269    6.6457   -1.0073 C   0  0  0  1  0  0  0  0  0  0  0  0
    0.5364    7.8798   -1.8458 C   0  0  0  1  0  0  0  0  0  0  0  0
    3.3679    5.6434   -1.4199 H   0  0  0  1  0  0  0  0  0  0  0  0
    2.1967    7.4540    0.4806 H   0  0  0  1  0  0  0  0  0  0  0  0
    5.5714    5.5094   -0.6462 H   0  0  0  1  0  0  0  0  0  0  0  0
    0.0378    6.5245   -0.2949 H   0  0  0  1  0  0  0  0  0  0  0  0
    0.8581    5.7940   -1.6542 H   0  0  0  1  0  0  0  0  0  0  0  0
    0.5628    8.7493   -1.2228 H   0  0  0  1  0  0  0  0  0  0  0  0
   -0.4328    7.7888   -2.2900 H   0  0  0  1  0  0  0  0  0  0  0  0
    1.2748    7.9700   -2.6150 H   0  0  0  1  0  0  0  0  0  0  0  0
  1  2  1  0  0  0  0
  1  3  2  0  0  0  0
  1  5  1  0  0  0  0
  2  4  2  0  0  0  0
  2  8  1  0  0  0  0
  4  6  1  0  0  0  0
  4  9  1  0  0  0  0
  5 10  1  0  0  0  0
  6  7  1  0  0  0  0
  6 11  1  0  0  0  0
  6 12  1  0  0  0  0
  7 13  1  0  0  0  0
  7 14  1  0  0  0  0
  7 15  1  0  0  0  0
M  END
> <ConfClashScore>
0 

> <ConfOneFourInteractionScore>
-0.989347 

> <ConfScore>
0.501127 

> <ConfScorePBest>
0.0071503 

> <ConfTolerance>
0.0279255 

$$$$
*****
  PyMOL2.5          3D                             0

 15 14  0  0  0  0  0  0  0  0999 V2000
    4.1791    5.6359    0.5483 C   0  0  0  1  0  0  0  0  0  0  0  0
    3.1859    6.0324   -0.4451 C   0  0  0  1  0  0  0  0  0  0  0  0
    4.0790    5.9640    1.7145 O   0  0  0  1  0  0  0  0  0  0  0  0
    2.1007    6.7448   -0.2572 C   0  0  0  1  0  0  0  0  0  0  0  0
    5.1582    4.9162    0.0823 O   0  0  0  1  0  0  0  0  0  0  0  0
    0.8316    6.6055   -1.0533 C   0  0  0  1  0  0  0  0  0  0  0  0
    0.5735    7.7871   -1.9740 C   0  0  0  1  0  0  0  0  0  0  0  0
    3.3596    5.7116   -1.4190 H   0  0  0  1  0  0  0  0  0  0  0  0
    2.1188    7.4592    0.4984 H   0  0  0  1  0  0  0  0  0  0  0  0
    5.6665    5.4347   -0.5456 H   0  0  0  1  0  0  0  0  0  0  0  0
    0.0105    6.5184   -0.3728 H   0  0  0  1  0  0  0  0  0  0  0  0
    0.8982    5.7185   -1.6480 H   0  0  0  1  0  0  0  0  0  0  0  0
   -0.3868    7.6789   -2.4333 H   0  0  0  1  0  0  0  0  0  0  0  0
    1.3289    7.8206   -2.7311 H   0  0  0  1  0  0  0  0  0  0  0  0
    0.5968    8.6934   -1.4058 H   0  0  0  1  0  0  0  0  0  0  0  0
  1  2  1  0  0  0  0
  1  3  2  0  0  0  0
  1  5  1  0  0  0  0
  2  4  2  0  0  0  0
  2  8  1  0  0  0  0
  4  6  1  0  0  0  0
  4  9  1  0  0  0  0
  5 10  1  0  0  0  0
  6  7  1  0  0  0  0
  6 11  1  0  0  0  0
  6 12  1  0  0  0  0
  7 13  1  0  0  0  0
  7 14  1  0  0  0  0
  7 15  1  0  0  0  0
M  END
> <ConfClashScore>
0 

> <ConfOneFourInteractionScore>
-0.989347 

> <ConfScore>
0.501127 

> <ConfScorePBest>
0.00712182 

> <ConfTolerance>
0.0335785 

$$$$
*****
  PyMOL2.5          3D                             0

 15 14  0  0  0  0  0  0  0  0999 V2000
    4.1956    5.6678    0.5164 C   0  0  0  1  0  0  0  0  0  0  0  0
    3.2033    6.0388   -0.4852 C   0  0  0  1  0  0  0  0  0  0  0  0
    4.0762    6.1376    1.6624 O   0  0  0  1  0  0  0  0  0  0  0  0
    2.1047    6.7136   -0.2562 C   0  0  0  1  0  0  0  0  0  0  0  0
    5.1189    4.8860    0.1479 O   0  0  0  1  0  0  0  0  0  0  0  0
    0.8082    6.6022   -0.9938 C   0  0  0  1  0  0  0  0  0  0  0  0
    0.3144    7.8859   -1.6409 C   0  0  0  1  0  0  0  0  0  0  0  0
    3.3834    5.7421   -1.4656 H   0  0  0  1  0  0  0  0  0  0  0  0
    2.1372    7.4016    0.5230 H   0  0  0  1  0  0  0  0  0  0  0  0
    5.6517    5.3145   -0.5259 H   0  0  0  1  0  0  0  0  0  0  0  0
    0.0618    6.2733   -0.3013 H   0  0  0  1  0  0  0  0  0  0  0  0
    0.9286    5.8694   -1.7641 H   0  0  0  1  0  0  0  0  0  0  0  0
   -0.0503    8.5496   -0.8849 H   0  0  0  1  0  0  0  0  0  0  0  0
   -0.4749    7.6586   -2.3266 H   0  0  0  1  0  0  0  0  0  0  0  0
    1.1207    8.3531   -2.1666 H   0  0  0  1  0  0  0  0  0  0  0  0
  1  2  1  0  0  0  0
  1  3  2  0  0  0  0
  1  5  1  0  0  0  0
  2  4  2  0  0  0  0
  2  8  1  0  0  0  0
  4  6  1  0  0  0  0
  4  9  1  0  0  0  0
  5 10  1  0  0  0  0
  6  7  1  0  0  0  0
  6 11  1  0  0  0  0
  6 12  1  0  0  0  0
  7 13  1  0  0  0  0
  7 14  1  0  0  0  0
  7 15  1  0  0  0  0
M  END
> <ConfClashScore>
0 

> <ConfOneFourInteractionScore>
-0.989347 

> <ConfScore>
0.501127 

> <ConfScorePBest>
0.00709334 

> <ConfTolerance>
0.0297766 

$$$$
*****
  PyMOL2.5          3D                             0

 15 14  0  0  0  0  0  0  0  0999 V2000
    4.1993    5.7188    0.4249 C   0  0  0  1  0  0  0  0  0  0  0  0
    3.0951    5.9358   -0.5020 C   0  0  0  1  0  0  0  0  0  0  0  0
    4.2473    6.4170    1.4537 O   0  0  0  1  0  0  0  0  0  0  0  0
    2.1029    6.7751   -0.3242 C   0  0  0  1  0  0  0  0  0  0  0  0
    5.0410    4.8267    0.1164 O   0  0  0  1  0  0  0  0  0  0  0  0
    0.7076    6.5834   -0.8556 C   0  0  0  1  0  0  0  0  0  0  0  0
   -0.3452    6.5347    0.2397 C   0  0  0  1  0  0  0  0  0  0  0  0
    3.0940    5.3773   -1.3793 H   0  0  0  1  0  0  0  0  0  0  0  0
    2.2946    7.6374    0.2247 H   0  0  0  1  0  0  0  0  0  0  0  0
    5.8974    5.2329   -0.0354 H   0  0  0  1  0  0  0  0  0  0  0  0
    0.6743    5.6635   -1.4011 H   0  0  0  1  0  0  0  0  0  0  0  0
    0.4785    7.3965   -1.5123 H   0  0  0  1  0  0  0  0  0  0  0  0
   -1.2810    6.2269   -0.1778 H   0  0  0  1  0  0  0  0  0  0  0  0
   -0.4516    7.5063    0.6752 H   0  0  0  1  0  0  0  0  0  0  0  0
   -0.0440    5.8368    0.9928 H   0  0  0  1  0  0  0  0  0  0  0  0
  1  2  1  0  0  0  0
  1  3  2  0  0  0  0
  1  5  1  0  0  0  0
  2  4  2  0  0  0  0
  2  8  1  0  0  0  0
  4  6  1  0  0  0  0
  4  9  1  0  0  0  0
  5 10  1  0  0  0  0
  6  7  1  0  0  0  0
  6 11  1  0  0  0  0
  6 12  1  0  0  0  0
  7 13  1  0  0  0  0
  7 14  1  0  0  0  0
  7 15  1  0  0  0  0
M  END
> <ConfClashScore>
0 

> <ConfOneFourInteractionScore>
-0.989347 

> <ConfScore>
0.503072 

> <ConfScorePBest>
0.00706485 

> <ConfTolerance>
0.0270734 

$$$$
*****
  PyMOL2.5          3D                             0

 15 14  0  0  0  0  0  0  0  0999 V2000
    4.1551    5.7145    0.4511 C   0  0  0  1  0  0  0  0  0  0  0  0
    3.0707    5.8834   -0.5095 C   0  0  0  1  0  0  0  0  0  0  0  0
    4.1782    6.2484    1.5478 O   0  0  0  1  0  0  0  0  0  0  0  0
    2.1099    6.7578   -0.3454 C   0  0  0  1  0  0  0  0  0  0  0  0
    5.1215    4.9242    0.0261 O   0  0  0  1  0  0  0  0  0  0  0  0
    0.6881    6.6441   -0.8267 C   0  0  0  1  0  0  0  0  0  0  0  0
   -0.4185    6.9061    0.1818 C   0  0  0  1  0  0  0  0  0  0  0  0
    3.0602    5.2847   -1.3598 H   0  0  0  1  0  0  0  0  0  0  0  0
    2.3557    7.6248    0.1737 H   0  0  0  1  0  0  0  0  0  0  0  0
    5.9399    5.4225   -0.0341 H   0  0  0  1  0  0  0  0  0  0  0  0
    0.5542    5.6494   -1.1977 H   0  0  0  1  0  0  0  0  0  0  0  0
    0.5641    7.3435   -1.6270 H   0  0  0  1  0  0  0  0  0  0  0  0
   -0.3237    6.2246    1.0012 H   0  0  0  1  0  0  0  0  0  0  0  0
   -1.3696    6.7678   -0.2886 H   0  0  0  1  0  0  0  0  0  0  0  0
   -0.3413    7.9105    0.5427 H   0  0  0  1  0  0  0  0  0  0  0  0
  1  2  1  0  0  0  0
  1  3  2  0  0  0  0
  1  5  1  0  0  0  0
  2  4  2  0  0  0  0
  2  8  1  0  0  0  0
  4  6  1  0  0  0  0
  4  9  1  0  0  0  0
  5 10  1  0  0  0  0
  6  7  1  0  0  0  0
  6 11  1  0  0  0  0
  6 12  1  0  0  0  0
  7 13  1  0  0  0  0
  7 14  1  0  0  0  0
  7 15  1  0  0  0  0
M  END
> <ConfClashScore>
0 

> <ConfOneFourInteractionScore>
-0.989347 

> <ConfScore>
0.503072 

> <ConfScorePBest>
0.00703637 

> <ConfTolerance>
0.0520793 

$$$$
*****
  PyMOL2.5          3D                             0

 15 14  0  0  0  0  0  0  0  0999 V2000
    4.1858    5.7723    0.4069 C   0  0  0  1  0  0  0  0  0  0  0  0
    3.0709    5.8999   -0.5246 C   0  0  0  1  0  0  0  0  0  0  0  0
    4.2993    6.5123    1.3763 O   0  0  0  1  0  0  0  0  0  0  0  0
    2.1049    6.7680   -0.3574 C   0  0  0  1  0  0  0  0  0  0  0  0
    5.0287    4.8230    0.1207 O   0  0  0  1  0  0  0  0  0  0  0  0
    0.6707    6.6239   -0.7914 C   0  0  0  1  0  0  0  0  0  0  0  0
    0.1985    7.8742   -1.5156 C   0  0  0  1  0  0  0  0  0  0  0  0
    3.0419    5.2756   -1.3559 H   0  0  0  1  0  0  0  0  0  0  0  0
    2.3557    7.6530    0.1277 H   0  0  0  1  0  0  0  0  0  0  0  0
    5.9213    5.1762    0.1208 H   0  0  0  1  0  0  0  0  0  0  0  0
    0.0575    6.4653    0.0710 H   0  0  0  1  0  0  0  0  0  0  0  0
    0.5859    5.7843   -1.4493 H   0  0  0  1  0  0  0  0  0  0  0  0
   -0.8219    7.7508   -1.8129 H   0  0  0  1  0  0  0  0  0  0  0  0
    0.8053    8.0347   -2.3822 H   0  0  0  1  0  0  0  0  0  0  0  0
    0.2799    8.7170   -0.8615 H   0  0  0  1  0  0  0  0  0  0  0  0
  1  2  1  0  0  0  0
  1  3  2  0  0  0  0
  1  5  1  0  0  0  0
  2  4  2  0  0  0  0
  2  8  1  0  0  0  0
  4  6  1  0  0  0  0
  4  9  1  0  0  0  0
  5 10  1  0  0  0  0
  6  7  1  0  0  0  0
  6 11  1  0  0  0  0
  6 12  1  0  0  0  0
  7 13  1  0  0  0  0
  7 14  1  0  0  0  0
  7 15  1  0  0  0  0
M  END
> <ConfClashScore>
0 

> <ConfOneFourInteractionScore>
-0.989347 

> <ConfScore>
0.506538 

> <ConfScorePBest>
0.00700789 

> <ConfTolerance>
0.0438351 

$$$$
*****
  PyMOL2.5          3D                             0

 15 14  0  0  0  0  0  0  0  0999 V2000
    4.1774    5.6904    0.4155 C   0  0  0  1  0  0  0  0  0  0  0  0
    3.0591    5.8391   -0.5089 C   0  0  0  1  0  0  0  0  0  0  0  0
    4.1137    6.2752    1.5120 O   0  0  0  1  0  0  0  0  0  0  0  0
    2.1306    6.7497   -0.3556 C   0  0  0  1  0  0  0  0  0  0  0  0
    5.1448    4.9700    0.0352 O   0  0  0  1  0  0  0  0  0  0  0  0
    0.6875    6.6527   -0.7727 C   0  0  0  1  0  0  0  0  0  0  0  0
    0.2818    7.5514   -1.9295 C   0  0  0  1  0  0  0  0  0  0  0  0
    2.9966    5.1954   -1.3233 H   0  0  0  1  0  0  0  0  0  0  0  0
    2.4218    7.6360    0.1040 H   0  0  0  1  0  0  0  0  0  0  0  0
    5.9479    5.4957    0.0168 H   0  0  0  1  0  0  0  0  0  0  0  0
    0.0820    6.9082    0.0718 H   0  0  0  1  0  0  0  0  0  0  0  0
    0.4936    5.6398   -1.0578 H   0  0  0  1  0  0  0  0  0  0  0  0
   -0.7603    7.4211   -2.1346 H   0  0  0  1  0  0  0  0  0  0  0  0
    0.8509    7.2931   -2.7980 H   0  0  0  1  0  0  0  0  0  0  0  0
    0.4691    8.5725   -1.6703 H   0  0  0  1  0  0  0  0  0  0  0  0
  1  2  1  0  0  0  0
  1  3  2  0  0  0  0
  1  5  1  0  0  0  0
  2  4  2  0  0  0  0
  2  8  1  0  0  0  0
  4  6  1  0  0  0  0
  4  9  1  0  0  0  0
  5 10  1  0  0  0  0
  6  7  1  0  0  0  0
  6 11  1  0  0  0  0
  6 12  1  0  0  0  0
  7 13  1  0  0  0  0
  7 14  1  0  0  0  0
  7 15  1  0  0  0  0
M  END
> <ConfClashScore>
0 

> <ConfOneFourInteractionScore>
-0.989347 

> <ConfScore>
0.506538 

> <ConfScorePBest>
0.00697941 

> <ConfTolerance>
0.0499645 

$$$$
*****
  PyMOL2.5          3D                             0

 15 14  0  0  0  0  0  0  0  0999 V2000
    4.1947    5.6540    0.4207 C   0  0  0  1  0  0  0  0  0  0  0  0
    3.0587    5.9205   -0.4571 C   0  0  0  1  0  0  0  0  0  0  0  0
    4.1840    6.1192    1.5674 O   0  0  0  1  0  0  0  0  0  0  0  0
    2.0851    6.7937   -0.3561 C   0  0  0  1  0  0  0  0  0  0  0  0
    5.1710    4.9486   -0.0136 O   0  0  0  1  0  0  0  0  0  0  0  0
    0.7000    6.5953   -0.8844 C   0  0  0  1  0  0  0  0  0  0  0  0
    0.2944    7.6487   -1.9024 C   0  0  0  1  0  0  0  0  0  0  0  0
    3.0139    5.3175   -1.3033 H   0  0  0  1  0  0  0  0  0  0  0  0
    2.2918    7.6910    0.1274 H   0  0  0  1  0  0  0  0  0  0  0  0
    5.9799    5.4645    0.0221 H   0  0  0  1  0  0  0  0  0  0  0  0
    0.0140    6.6325   -0.0641 H   0  0  0  1  0  0  0  0  0  0  0  0
    0.6477    5.6335   -1.3504 H   0  0  0  1  0  0  0  0  0  0  0  0
    0.4189    8.6227   -1.4774 H   0  0  0  1  0  0  0  0  0  0  0  0
   -0.7309    7.5064   -2.1733 H   0  0  0  1  0  0  0  0  0  0  0  0
    0.9097    7.5584   -2.7731 H   0  0  0  1  0  0  0  0  0  0  0  0
  1  2  1  0  0  0  0
  1  3  2  0  0  0  0
  1  5  1  0  0  0  0
  2  4  2  0  0  0  0
  2  8  1  0  0  0  0
  4  6  1  0  0  0  0
  4  9  1  0  0  0  0
  5 10  1  0  0  0  0
  6  7  1  0  0  0  0
  6 11  1  0  0  0  0
  6 12  1  0  0  0  0
  7 13  1  0  0  0  0
  7 14  1  0  0  0  0
  7 15  1  0  0  0  0
M  END
> <ConfClashScore>
0 

> <ConfOneFourInteractionScore>
-0.989347 

> <ConfScore>
0.506538 

> <ConfScorePBest>
0.00695093 

> <ConfTolerance>
0.0405143 

$$$$
*****
  PyMOL2.5          3D                             0

 15 14  0  0  0  0  0  0  0  0999 V2000
    4.1856    5.7682    0.4235 C   0  0  0  1  0  0  0  0  0  0  0  0
    3.0875    5.9285   -0.5228 C   0  0  0  1  0  0  0  0  0  0  0  0
    4.3068    6.5033    1.3957 O   0  0  0  1  0  0  0  0  0  0  0  0
    2.1067    6.7786   -0.3330 C   0  0  0  1  0  0  0  0  0  0  0  0
    5.0052    4.7958    0.1470 O   0  0  0  1  0  0  0  0  0  0  0  0
    0.6967    6.5897   -0.8253 C   0  0  0  1  0  0  0  0  0  0  0  0
    0.2730    7.7539   -1.7060 C   0  0  0  1  0  0  0  0  0  0  0  0
    3.0818    5.3448   -1.3835 H   0  0  0  1  0  0  0  0  0  0  0  0
    2.3190    7.6478    0.1970 H   0  0  0  1  0  0  0  0  0  0  0  0
    5.8900    5.1476    0.0245 H   0  0  0  1  0  0  0  0  0  0  0  0
    0.0372    6.5273    0.0149 H   0  0  0  1  0  0  0  0  0  0  0  0
    0.6411    5.6833   -1.3912 H   0  0  0  1  0  0  0  0  0  0  0  0
    0.3189    8.6627   -1.1432 H   0  0  0  1  0  0  0  0  0  0  0  0
   -0.7288    7.5963   -2.0474 H   0  0  0  1  0  0  0  0  0  0  0  0
    0.9304    7.8220   -2.5474 H   0  0  0  1  0  0  0  0  0  0  0  0
  1  2  1  0  0  0  0
  1  3  2  0  0  0  0
  1  5  1  0  0  0  0
  2  4  2  0  0  0  0
  2  8  1  0  0  0  0
  4  6  1  0  0  0  0
  4  9  1  0  0  0  0
  5 10  1  0  0  0  0
  6  7  1  0  0  0  0
  6 11  1  0  0  0  0
  6 12  1  0  0  0  0
  7 13  1  0  0  0  0
  7 14  1  0  0  0  0
  7 15  1  0  0  0  0
M  END
> <ConfClashScore>
0 

> <ConfOneFourInteractionScore>
-0.989347 

> <ConfScore>
0.506538 

> <ConfScorePBest>
0.00692245 

> <ConfTolerance>
0.0419224 

$$$$
*****
  PyMOL2.5          3D                             0

 15 14  0  0  0  0  0  0  0  0999 V2000
    4.2025    5.7291    0.4427 C   0  0  0  1  0  0  0  0  0  0  0  0
    3.1157    6.0595   -0.4368 C   0  0  0  1  0  0  0  0  0  0  0  0
    4.3865    6.2645    1.5234 O   0  0  0  1  0  0  0  0  0  0  0  0
    2.0407    6.8018   -0.3189 C   0  0  0  1  0  0  0  0  0  0  0  0
    4.9948    4.7844   -0.0253 O   0  0  0  1  0  0  0  0  0  0  0  0
    0.7397    6.5502   -1.0303 C   0  0  0  1  0  0  0  0  0  0  0  0
    0.2668    7.7425   -1.8459 C   0  0  0  1  0  0  0  0  0  0  0  0
    3.1996    5.6120   -1.3718 H   0  0  0  1  0  0  0  0  0  0  0  0
    2.0919    7.6258    0.3136 H   0  0  0  1  0  0  0  0  0  0  0  0
    5.9077    5.0770    0.0266 H   0  0  0  1  0  0  0  0  0  0  0  0
   -0.0080    6.3185   -0.3008 H   0  0  0  1  0  0  0  0  0  0  0  0
    0.8671    5.7163   -1.6885 H   0  0  0  1  0  0  0  0  0  0  0  0
    0.0851    8.5715   -1.1943 H   0  0  0  1  0  0  0  0  0  0  0  0
   -0.6370    7.4875   -2.3588 H   0  0  0  1  0  0  0  0  0  0  0  0
    1.0194    8.0077   -2.5588 H   0  0  0  1  0  0  0  0  0  0  0  0
  1  2  1  0  0  0  0
  1  3  2  0  0  0  0
  1  5  1  0  0  0  0
  2  4  2  0  0  0  0
  2  8  1  0  0  0  0
  4  6  1  0  0  0  0
  4  9  1  0  0  0  0
  5 10  1  0  0  0  0
  6  7  1  0  0  0  0
  6 11  1  0  0  0  0
  6 12  1  0  0  0  0
  7 13  1  0  0  0  0
  7 14  1  0  0  0  0
  7 15  1  0  0  0  0
M  END
> <ConfClashScore>
0 

> <ConfOneFourInteractionScore>
-0.989347 

> <ConfScore>
0.506538 

> <ConfScorePBest>
0.00689397 

> <ConfTolerance>
0.0541568 

$$$$
*****
  PyMOL2.5          3D                             0

 15 14  0  0  0  0  0  0  0  0999 V2000
    4.1952    5.7287    0.4244 C   0  0  0  1  0  0  0  0  0  0  0  0
    3.0751    5.9393   -0.4876 C   0  0  0  1  0  0  0  0  0  0  0  0
    4.2733    6.3202    1.4835 O   0  0  0  1  0  0  0  0  0  0  0  0
    2.0800    6.7804   -0.3561 C   0  0  0  1  0  0  0  0  0  0  0  0
    5.0812    4.8704    0.0097 O   0  0  0  1  0  0  0  0  0  0  0  0
    0.6656    6.6090   -0.8715 C   0  0  0  1  0  0  0  0  0  0  0  0
    0.4084    7.6584   -1.9405 C   0  0  0  1  0  0  0  0  0  0  0  0
    3.0662    5.3506   -1.3449 H   0  0  0  1  0  0  0  0  0  0  0  0
    2.2826    7.6616    0.1577 H   0  0  0  1  0  0  0  0  0  0  0  0
    5.9599    5.2442    0.1079 H   0  0  0  1  0  0  0  0  0  0  0  0
   -0.0287    6.7360   -0.0674 H   0  0  0  1  0  0  0  0  0  0  0  0
    0.5511    5.6314   -1.2912 H   0  0  0  1  0  0  0  0  0  0  0  0
   -0.6121    7.6029   -2.2573 H   0  0  0  1  0  0  0  0  0  0  0  0
    1.0514    7.4802   -2.7770 H   0  0  0  1  0  0  0  0  0  0  0  0
    0.6048    8.6309   -1.5399 H   0  0  0  1  0  0  0  0  0  0  0  0
  1  2  1  0  0  0  0
  1  3  2  0  0  0  0
  1  5  1  0  0  0  0
  2  4  2  0  0  0  0
  2  8  1  0  0  0  0
  4  6  1  0  0  0  0
  4  9  1  0  0  0  0
  5 10  1  0  0  0  0
  6  7  1  0  0  0  0
  6 11  1  0  0  0  0
  6 12  1  0  0  0  0
  7 13  1  0  0  0  0
  7 14  1  0  0  0  0
  7 15  1  0  0  0  0
M  END
> <ConfClashScore>
0 

> <ConfOneFourInteractionScore>
-0.989347 

> <ConfScore>
0.506538 

> <ConfScorePBest>
0.00686549 

> <ConfTolerance>
0.0422461 

$$$$
*****
  PyMOL2.5          3D                             0

 15 14  0  0  0  0  0  0  0  0999 V2000
    4.2036    5.7537    0.3896 C   0  0  0  1  0  0  0  0  0  0  0  0
    3.0665    5.9116   -0.5091 C   0  0  0  1  0  0  0  0  0  0  0  0
    4.3472    6.5608    1.3166 O   0  0  0  1  0  0  0  0  0  0  0  0
    2.0958    6.7786   -0.3649 C   0  0  0  1  0  0  0  0  0  0  0  0
    5.0233    4.7885    0.2005 O   0  0  0  1  0  0  0  0  0  0  0  0
    0.6648    6.6194   -0.8040 C   0  0  0  1  0  0  0  0  0  0  0  0
    0.3325    7.5939   -1.9221 C   0  0  0  1  0  0  0  0  0  0  0  0
    3.0226    5.2818   -1.3355 H   0  0  0  1  0  0  0  0  0  0  0  0
    2.3400    7.6743    0.1038 H   0  0  0  1  0  0  0  0  0  0  0  0
    5.9153    5.1356    0.1261 H   0  0  0  1  0  0  0  0  0  0  0  0
    0.0194    6.8074    0.0285 H   0  0  0  1  0  0  0  0  0  0  0  0
    0.5143    5.6195   -1.1539 H   0  0  0  1  0  0  0  0  0  0  0  0
   -0.6695    7.4248   -2.2573 H   0  0  0  1  0  0  0  0  0  0  0  0
    1.0105    7.4464   -2.7367 H   0  0  0  1  0  0  0  0  0  0  0  0
    0.4226    8.5966   -1.5595 H   0  0  0  1  0  0  0  0  0  0  0  0
  1  2  1  0  0  0  0
  1  3  2  0  0  0  0
  1  5  1  0  0  0  0
  2  4  2  0  0  0  0
  2  8  1  0  0  0  0
  4  6  1  0  0  0  0
  4  9  1  0  0  0  0
  5 10  1  0  0  0  0
  6  7  1  0  0  0  0
  6 11  1  0  0  0  0
  6 12  1  0  0  0  0
  7 13  1  0  0  0  0
  7 14  1  0  0  0  0
  7 15  1  0  0  0  0
M  END
> <ConfClashScore>
0 

> <ConfOneFourInteractionScore>
-0.989347 

> <ConfScore>
0.506538 

> <ConfScorePBest>
0.00683701 

> <ConfTolerance>
0.0397265 

$$$$
*****
  PyMOL2.5          3D                             0

 15 14  0  0  0  0  0  0  0  0999 V2000
    4.3519    5.9484    0.2358 C   0  0  0  1  0  0  0  0  0  0  0  0
    3.0937    5.9292   -0.5040 C   0  0  0  1  0  0  0  0  0  0  0  0
    4.7624    6.9156    0.8419 O   0  0  0  1  0  0  0  0  0  0  0  0
    2.1995    6.8132   -0.5273 C   0  0  0  1  0  0  0  0  0  0  0  0
    5.0128    4.8082    0.1876 O   0  0  0  1  0  0  0  0  0  0  0  0
    0.7043    6.8110   -0.7011 C   0  0  0  1  0  0  0  0  0  0  0  0
   -0.0324    7.4365    0.4721 C   0  0  0  1  0  0  0  0  0  0  0  0
    2.9153    5.0826   -1.0811 H   0  0  0  1  0  0  0  0  0  0  0  0
    2.5833    7.7708   -0.3957 H   0  0  0  1  0  0  0  0  0  0  0  0
    5.0559    4.4254    1.0669 H   0  0  0  1  0  0  0  0  0  0  0  0
    0.3754    5.7985   -0.8089 H   0  0  0  1  0  0  0  0  0  0  0  0
    0.4635    7.3609   -1.5868 H   0  0  0  1  0  0  0  0  0  0  0  0
   -1.0835    7.4421    0.2719 H   0  0  0  1  0  0  0  0  0  0  0  0
    0.3090    8.4408    0.6127 H   0  0  0  1  0  0  0  0  0  0  0  0
    0.1588    6.8671    1.3576 H   0  0  0  1  0  0  0  0  0  0  0  0
  1  2  1  0  0  0  0
  1  3  2  0  0  0  0
  1  5  1  0  0  0  0
  2  4  2  0  0  0  0
  2  8  1  0  0  0  0
  4  6  1  0  0  0  0
  4  9  1  0  0  0  0
  5 10  1  0  0  0  0
  6  7  1  0  0  0  0
  6 11  1  0  0  0  0
  6 12  1  0  0  0  0
  7 13  1  0  0  0  0
  7 14  1  0  0  0  0
  7 15  1  0  0  0  0
M  END
> <ConfClashScore>
0 

> <ConfOneFourInteractionScore>
-0.989347 

> <ConfScore>
0.507713 

> <ConfScorePBest>
0.00680853 

> <ConfTolerance>
0.0576136 

$$$$
*****
  PyMOL2.5          3D                             0

 15 14  0  0  0  0  0  0  0  0999 V2000
    4.3228    5.8921    0.2562 C   0  0  0  1  0  0  0  0  0  0  0  0
    3.1027    5.9334   -0.5408 C   0  0  0  1  0  0  0  0  0  0  0  0
    4.4909    6.7743    1.1174 O   0  0  0  1  0  0  0  0  0  0  0  0
    2.1604    6.8376   -0.4455 C   0  0  0  1  0  0  0  0  0  0  0  0
    5.1347    4.9529    0.0150 O   0  0  0  1  0  0  0  0  0  0  0  0
    0.6908    6.6477   -0.7108 C   0  0  0  1  0  0  0  0  0  0  0  0
   -0.1878    7.1299    0.4319 C   0  0  0  1  0  0  0  0  0  0  0  0
    2.9694    5.1802   -1.2454 H   0  0  0  1  0  0  0  0  0  0  0  0
    2.4597    7.7903   -0.1549 H   0  0  0  1  0  0  0  0  0  0  0  0
    5.3479    4.4960    0.8319 H   0  0  0  1  0  0  0  0  0  0  0  0
    0.5048    5.6056   -0.8671 H   0  0  0  1  0  0  0  0  0  0  0  0
    0.4309    7.1932   -1.5939 H   0  0  0  1  0  0  0  0  0  0  0  0
    0.1436    8.0948    0.7545 H   0  0  0  1  0  0  0  0  0  0  0  0
   -0.1229    6.4399    1.2471 H   0  0  0  1  0  0  0  0  0  0  0  0
   -1.2025    7.1946    0.0986 H   0  0  0  1  0  0  0  0  0  0  0  0
  1  2  1  0  0  0  0
  1  3  2  0  0  0  0
  1  5  1  0  0  0  0
  2  4  2  0  0  0  0
  2  8  1  0  0  0  0
  4  6  1  0  0  0  0
  4  9  1  0  0  0  0
  5 10  1  0  0  0  0
  6  7  1  0  0  0  0
  6 11  1  0  0  0  0
  6 12  1  0  0  0  0
  7 13  1  0  0  0  0
  7 14  1  0  0  0  0
  7 15  1  0  0  0  0
M  END
> <ConfClashScore>
0 

> <ConfOneFourInteractionScore>
-0.989347 

> <ConfScore>
0.507713 

> <ConfScorePBest>
0.00678005 

> <ConfTolerance>
0.0295008 

$$$$
*****
  PyMOL2.5          3D                             0

 15 14  0  0  0  0  0  0  0  0999 V2000
    4.3286    5.9034    0.2795 C   0  0  0  1  0  0  0  0  0  0  0  0
    3.1338    5.9732   -0.5531 C   0  0  0  1  0  0  0  0  0  0  0  0
    4.4322    6.7024    1.2204 O   0  0  0  1  0  0  0  0  0  0  0  0
    2.1566    6.8335   -0.4130 C   0  0  0  1  0  0  0  0  0  0  0  0
    5.1858    5.0228   -0.0192 O   0  0  0  1  0  0  0  0  0  0  0  0
    0.7041    6.6184   -0.7449 C   0  0  0  1  0  0  0  0  0  0  0  0
    0.1215    7.7228   -1.6115 C   0  0  0  1  0  0  0  0  0  0  0  0
    3.0505    5.2805   -1.3243 H   0  0  0  1  0  0  0  0  0  0  0  0
    2.4116    7.7667   -0.0310 H   0  0  0  1  0  0  0  0  0  0  0  0
    5.2759    4.4034    0.7087 H   0  0  0  1  0  0  0  0  0  0  0  0
    0.1490    6.5738    0.1688 H   0  0  0  1  0  0  0  0  0  0  0  0
    0.6081    5.6893   -1.2669 H   0  0  0  1  0  0  0  0  0  0  0  0
   -0.9021    7.5017   -1.8316 H   0  0  0  1  0  0  0  0  0  0  0  0
    0.6759    7.7896   -2.5243 H   0  0  0  1  0  0  0  0  0  0  0  0
    0.1804    8.6546   -1.0889 H   0  0  0  1  0  0  0  0  0  0  0  0
  1  2  1  0  0  0  0
  1  3  2  0  0  0  0
  1  5  1  0  0  0  0
  2  4  2  0  0  0  0
  2  8  1  0  0  0  0
  4  6  1  0  0  0  0
  4  9  1  0  0  0  0
  5 10  1  0  0  0  0
  6  7  1  0  0  0  0
  6 11  1  0  0  0  0
  6 12  1  0  0  0  0
  7 13  1  0  0  0  0
  7 14  1  0  0  0  0
  7 15  1  0  0  0  0
M  END
> <ConfClashScore>
0 

> <ConfOneFourInteractionScore>
-0.989347 

> <ConfScore>
0.511179 

> <ConfScorePBest>
0.00675157 

> <ConfTolerance>
0.0375764 

$$$$
*****
  PyMOL2.5          3D                             0

 15 14  0  0  0  0  0  0  0  0999 V2000
    4.3195    5.9192    0.3254 C   0  0  0  1  0  0  0  0  0  0  0  0
    3.1534    6.0478   -0.5432 C   0  0  0  1  0  0  0  0  0  0  0  0
    4.5008    6.5982    1.3172 O   0  0  0  1  0  0  0  0  0  0  0  0
    2.1263    6.8465   -0.3951 C   0  0  0  1  0  0  0  0  0  0  0  0
    5.1707    4.9902   -0.0640 O   0  0  0  1  0  0  0  0  0  0  0  0
    0.7104    6.5953   -0.8400 C   0  0  0  1  0  0  0  0  0  0  0  0
    0.2308    7.5862   -1.8881 C   0  0  0  1  0  0  0  0  0  0  0  0
    3.1363    5.4310   -1.3804 H   0  0  0  1  0  0  0  0  0  0  0  0
    2.3087    7.7527    0.0815 H   0  0  0  1  0  0  0  0  0  0  0  0
    5.2531    4.3234    0.6217 H   0  0  0  1  0  0  0  0  0  0  0  0
    0.0681    6.6643    0.0130 H   0  0  0  1  0  0  0  0  0  0  0  0
    0.6526    5.6094   -1.2518 H   0  0  0  1  0  0  0  0  0  0  0  0
    0.1064    8.5492   -1.4387 H   0  0  0  1  0  0  0  0  0  0  0  0
   -0.7048    7.2563   -2.2888 H   0  0  0  1  0  0  0  0  0  0  0  0
    0.9534    7.6507   -2.6746 H   0  0  0  1  0  0  0  0  0  0  0  0
  1  2  1  0  0  0  0
  1  3  2  0  0  0  0
  1  5  1  0  0  0  0
  2  4  2  0  0  0  0
  2  8  1  0  0  0  0
  4  6  1  0  0  0  0
  4  9  1  0  0  0  0
  5 10  1  0  0  0  0
  6  7  1  0  0  0  0
  6 11  1  0  0  0  0
  6 12  1  0  0  0  0
  7 13  1  0  0  0  0
  7 14  1  0  0  0  0
  7 15  1  0  0  0  0
M  END
> <ConfClashScore>
0 

> <ConfOneFourInteractionScore>
-0.989347 

> <ConfScore>
0.511179 

> <ConfScorePBest>
0.00672309 

> <ConfTolerance>
0.0319399 

$$$$
*****
  PyMOL2.5          3D                             0

 15 14  0  0  0  0  0  0  0  0999 V2000
    4.2914    5.8525    0.3820 C   0  0  0  1  0  0  0  0  0  0  0  0
    3.1788    6.1445   -0.4786 C   0  0  0  1  0  0  0  0  0  0  0  0
    4.2855    6.1655    1.5661 O   0  0  0  1  0  0  0  0  0  0  0  0
    2.0562    6.8007   -0.3241 C   0  0  0  1  0  0  0  0  0  0  0  0
    5.2823    5.2397   -0.1979 O   0  0  0  1  0  0  0  0  0  0  0  0
    0.7465    6.5330   -1.0161 C   0  0  0  1  0  0  0  0  0  0  0  0
    0.1802    7.7589   -1.7139 C   0  0  0  1  0  0  0  0  0  0  0  0
    3.2892    5.7478   -1.4336 H   0  0  0  1  0  0  0  0  0  0  0  0
    2.0711    7.5927    0.3498 H   0  0  0  1  0  0  0  0  0  0  0  0
    5.4782    4.4279    0.2756 H   0  0  0  1  0  0  0  0  0  0  0  0
    0.0382    6.1986   -0.2871 H   0  0  0  1  0  0  0  0  0  0  0  0
    0.8975    5.7652   -1.7458 H   0  0  0  1  0  0  0  0  0  0  0  0
   -0.6503    7.4710   -2.3239 H   0  0  0  1  0  0  0  0  0  0  0  0
    0.9370    8.2010   -2.3277 H   0  0  0  1  0  0  0  0  0  0  0  0
   -0.1446    8.4679   -0.9812 H   0  0  0  1  0  0  0  0  0  0  0  0
  1  2  1  0  0  0  0
  1  3  2  0  0  0  0
  1  5  1  0  0  0  0
  2  4  2  0  0  0  0
  2  8  1  0  0  0  0
  4  6  1  0  0  0  0
  4  9  1  0  0  0  0
  5 10  1  0  0  0  0
  6  7  1  0  0  0  0
  6 11  1  0  0  0  0
  6 12  1  0  0  0  0
  7 13  1  0  0  0  0
  7 14  1  0  0  0  0
  7 15  1  0  0  0  0
M  END
> <ConfClashScore>
0 

> <ConfOneFourInteractionScore>
-0.989347 

> <ConfScore>
0.511179 

> <ConfScorePBest>
0.0066946 

> <ConfTolerance>
0.0579202 

$$$$
*****
  PyMOL2.5          3D                             0

 15 14  0  0  0  0  0  0  0  0999 V2000
    4.3238    5.8973    0.2849 C   0  0  0  1  0  0  0  0  0  0  0  0
    3.1353    5.9890   -0.5544 C   0  0  0  1  0  0  0  0  0  0  0  0
    4.4077    6.6559    1.2677 O   0  0  0  1  0  0  0  0  0  0  0  0
    2.1521    6.8425   -0.3949 C   0  0  0  1  0  0  0  0  0  0  0  0
    5.1966    5.0443   -0.0469 O   0  0  0  1  0  0  0  0  0  0  0  0
    0.7163    6.5802   -0.7633 C   0  0  0  1  0  0  0  0  0  0  0  0
    0.1916    7.5301   -1.8277 C   0  0  0  1  0  0  0  0  0  0  0  0
    3.0606    5.3205   -1.3476 H   0  0  0  1  0  0  0  0  0  0  0  0
    2.3816    7.7695    0.0168 H   0  0  0  1  0  0  0  0  0  0  0  0
    5.3052    4.4050    0.6609 H   0  0  0  1  0  0  0  0  0  0  0  0
    0.1144    6.6868    0.1149 H   0  0  0  1  0  0  0  0  0  0  0  0
    0.6367    5.5787   -1.1315 H   0  0  0  1  0  0  0  0  0  0  0  0
    0.8575    7.5309   -2.6652 H   0  0  0  1  0  0  0  0  0  0  0  0
    0.1269    8.5184   -1.4227 H   0  0  0  1  0  0  0  0  0  0  0  0
   -0.7789    7.2096   -2.1442 H   0  0  0  1  0  0  0  0  0  0  0  0
  1  2  1  0  0  0  0
  1  3  2  0  0  0  0
  1  5  1  0  0  0  0
  2  4  2  0  0  0  0
  2  8  1  0  0  0  0
  4  6  1  0  0  0  0
  4  9  1  0  0  0  0
  5 10  1  0  0  0  0
  6  7  1  0  0  0  0
  6 11  1  0  0  0  0
  6 12  1  0  0  0  0
  7 13  1  0  0  0  0
  7 14  1  0  0  0  0
  7 15  1  0  0  0  0
M  END
> <ConfClashScore>
0 

> <ConfOneFourInteractionScore>
-0.989347 

> <ConfScore>
0.511179 

> <ConfScorePBest>
0.00666612 

> <ConfTolerance>
0.0321101 

$$$$
*****
  PyMOL2.5          3D                             0

 15 14  0  0  0  0  0  0  0  0999 V2000
    4.2755    5.8754    0.4158 C   0  0  0  1  0  0  0  0  0  0  0  0
    3.1917    6.1334   -0.5273 C   0  0  0  1  0  0  0  0  0  0  0  0
    4.2166    6.1396    1.6009 O   0  0  0  1  0  0  0  0  0  0  0  0
    2.0751    6.7817   -0.3092 C   0  0  0  1  0  0  0  0  0  0  0  0
    5.3385    5.3235   -0.1361 O   0  0  0  1  0  0  0  0  0  0  0  0
    0.7447    6.5439   -0.9704 C   0  0  0  1  0  0  0  0  0  0  0  0
    0.2766    7.7231   -1.8075 C   0  0  0  1  0  0  0  0  0  0  0  0
    3.3221    5.7570   -1.4880 H   0  0  0  1  0  0  0  0  0  0  0  0
    2.1119    7.5436    0.3977 H   0  0  0  1  0  0  0  0  0  0  0  0
    5.4031    4.4062    0.1398 H   0  0  0  1  0  0  0  0  0  0  0  0
    0.0156    6.3549   -0.2104 H   0  0  0  1  0  0  0  0  0  0  0  0
    0.8285    5.6871   -1.6059 H   0  0  0  1  0  0  0  0  0  0  0  0
   -0.7368    7.5649   -2.1122 H   0  0  0  1  0  0  0  0  0  0  0  0
    0.8988    7.8151   -2.6731 H   0  0  0  1  0  0  0  0  0  0  0  0
    0.3382    8.6195   -1.2264 H   0  0  0  1  0  0  0  0  0  0  0  0
  1  2  1  0  0  0  0
  1  3  2  0  0  0  0
  1  5  1  0  0  0  0
  2  4  2  0  0  0  0
  2  8  1  0  0  0  0
  4  6  1  0  0  0  0
  4  9  1  0  0  0  0
  5 10  1  0  0  0  0
  6  7  1  0  0  0  0
  6 11  1  0  0  0  0
  6 12  1  0  0  0  0
  7 13  1  0  0  0  0
  7 14  1  0  0  0  0
  7 15  1  0  0  0  0
M  END
> <ConfClashScore>
0 

> <ConfOneFourInteractionScore>
-0.989347 

> <ConfScore>
0.511179 

> <ConfScorePBest>
0.00663764 

> <ConfTolerance>
0.0319058 

$$$$
*****
  PyMOL2.5          3D                             0

 15 14  0  0  0  0  0  0  0  0999 V2000
    4.2578    5.9131    0.3081 C   0  0  0  1  0  0  0  0  0  0  0  0
    3.0975    5.9258   -0.5837 C   0  0  0  1  0  0  0  0  0  0  0  0
    4.2663    6.5432    1.3583 O   0  0  0  1  0  0  0  0  0  0  0  0
    2.1379    6.7731   -0.3969 C   0  0  0  1  0  0  0  0  0  0  0  0
    5.2559    5.1884   -0.1072 O   0  0  0  1  0  0  0  0  0  0  0  0
    0.6659    6.6402   -0.6994 C   0  0  0  1  0  0  0  0  0  0  0  0
    0.2314    7.6730   -1.7266 C   0  0  0  1  0  0  0  0  0  0  0  0
    3.0440    5.2497   -1.3721 H   0  0  0  1  0  0  0  0  0  0  0  0
    2.4235    7.6801    0.0241 H   0  0  0  1  0  0  0  0  0  0  0  0
    5.5305    4.5906    0.5920 H   0  0  0  1  0  0  0  0  0  0  0  0
    0.1080    6.7857    0.2019 H   0  0  0  1  0  0  0  0  0  0  0  0
    0.4738    5.6605   -1.0842 H   0  0  0  1  0  0  0  0  0  0  0  0
    0.3821    8.6556   -1.3308 H   0  0  0  1  0  0  0  0  0  0  0  0
   -0.8050    7.5354   -1.9540 H   0  0  0  1  0  0  0  0  0  0  0  0
    0.8114    7.5550   -2.6180 H   0  0  0  1  0  0  0  0  0  0  0  0
  1  2  1  0  0  0  0
  1  3  2  0  0  0  0
  1  5  1  0  0  0  0
  2  4  2  0  0  0  0
  2  8  1  0  0  0  0
  4  6  1  0  0  0  0
  4  9  1  0  0  0  0
  5 10  1  0  0  0  0
  6  7  1  0  0  0  0
  6 11  1  0  0  0  0
  6 12  1  0  0  0  0
  7 13  1  0  0  0  0
  7 14  1  0  0  0  0
  7 15  1  0  0  0  0
M  END
> <ConfClashScore>
0 

> <ConfOneFourInteractionScore>
-0.989347 

> <ConfScore>
0.511179 

> <ConfScorePBest>
0.00660916 

> <ConfTolerance>
0.062735 

$$$$
*****
  PyMOL2.5          3D                             0

 15 14  0  0  0  0  0  0  0  0999 V2000
    4.1898    5.6305    0.5715 C   0  0  0  1  0  0  0  0  0  0  0  0
    3.2499    6.1087   -0.4353 C   0  0  0  1  0  0  0  0  0  0  0  0
    4.0071    5.8311    1.7658 O   0  0  0  1  0  0  0  0  0  0  0  0
    2.1029    6.7418   -0.1875 C   0  0  0  1  0  0  0  0  0  0  0  0
    5.2160    4.9865    0.0962 O   0  0  0  1  0  0  0  0  0  0  0  0
    0.9613    6.5661   -1.1529 C   0  0  0  1  0  0  0  0  0  0  0  0
   -0.3380    6.1673   -0.4724 C   0  0  0  1  0  0  0  0  0  0  0  0
    3.4951    5.9416   -1.4321 H   0  0  0  1  0  0  0  0  0  0  0  0
    1.9991    7.3438    0.6543 H   0  0  0  1  0  0  0  0  0  0  0  0
    5.4580    5.3542   -0.7569 H   0  0  0  1  0  0  0  0  0  0  0  0
    1.2248    5.8045   -1.8568 H   0  0  0  1  0  0  0  0  0  0  0  0
    0.8060    7.4907   -1.6685 H   0  0  0  1  0  0  0  0  0  0  0  0
   -0.1642    5.3242    0.1632 H   0  0  0  1  0  0  0  0  0  0  0  0
   -1.0648    5.9105   -1.2145 H   0  0  0  1  0  0  0  0  0  0  0  0
   -0.6996    6.9866    0.1132 H   0  0  0  1  0  0  0  0  0  0  0  0
  1  2  1  0  0  0  0
  1  3  2  0  0  0  0
  1  5  1  0  0  0  0
  2  4  2  0  0  0  0
  2  8  1  0  0  0  0
  4  6  1  0  0  0  0
  4  9  1  0  0  0  0
  5 10  1  0  0  0  0
  6  7  1  0  0  0  0
  6 11  1  0  0  0  0
  6 12  1  0  0  0  0
  7 13  1  0  0  0  0
  7 14  1  0  0  0  0
  7 15  1  0  0  0  0
M  END
> <ConfClashScore>
0 

> <ConfOneFourInteractionScore>
-0.989347 

> <ConfScore>
0.523946 

> <ConfScorePBest>
0.00658068 

> <ConfTolerance>
0.0463136 

$$$$
*****
  PyMOL2.5          3D                             0

 15 14  0  0  0  0  0  0  0  0999 V2000
    4.1769    5.6678    0.5788 C   0  0  0  1  0  0  0  0  0  0  0  0
    3.2622    6.0750   -0.4817 C   0  0  0  1  0  0  0  0  0  0  0  0
    3.9005    5.8295    1.7610 O   0  0  0  1  0  0  0  0  0  0  0  0
    2.1425    6.6783   -0.2457 C   0  0  0  1  0  0  0  0  0  0  0  0
    5.2869    5.1299    0.1638 O   0  0  0  1  0  0  0  0  0  0  0  0
    0.8414    6.6367   -1.0209 C   0  0  0  1  0  0  0  0  0  0  0  0
   -0.2667    6.1828   -0.0848 C   0  0  0  1  0  0  0  0  0  0  0  0
    3.5208    5.8720   -1.4683 H   0  0  0  1  0  0  0  0  0  0  0  0
    2.1341    7.2811    0.6017 H   0  0  0  1  0  0  0  0  0  0  0  0
    5.4140    5.3339   -0.7656 H   0  0  0  1  0  0  0  0  0  0  0  0
    0.9293    5.9486   -1.8356 H   0  0  0  1  0  0  0  0  0  0  0  0
    0.6163    7.6118   -1.3997 H   0  0  0  1  0  0  0  0  0  0  0  0
   -1.1480    5.9677   -0.6523 H   0  0  0  1  0  0  0  0  0  0  0  0
   -0.4778    6.9592    0.6205 H   0  0  0  1  0  0  0  0  0  0  0  0
    0.0454    5.3020    0.4363 H   0  0  0  1  0  0  0  0  0  0  0  0
  1  2  1  0  0  0  0
  1  3  2  0  0  0  0
  1  5  1  0  0  0  0
  2  4  2  0  0  0  0
  2  8  1  0  0  0  0
  4  6  1  0  0  0  0
  4  9  1  0  0  0  0
  5 10  1  0  0  0  0
  6  7  1  0  0  0  0
  6 11  1  0  0  0  0
  6 12  1  0  0  0  0
  7 13  1  0  0  0  0
  7 14  1  0  0  0  0
  7 15  1  0  0  0  0
M  END
> <ConfClashScore>
0 

> <ConfOneFourInteractionScore>
-0.989347 

> <ConfScore>
0.523946 

> <ConfScorePBest>
0.0065522 

> <ConfTolerance>
0.0495263 

$$$$
*****
  PyMOL2.5          3D                             0

 15 14  0  0  0  0  0  0  0  0999 V2000
    4.1785    5.6795    0.4945 C   0  0  0  1  0  0  0  0  0  0  0  0
    3.1370    5.9852   -0.4789 C   0  0  0  1  0  0  0  0  0  0  0  0
    4.1771    6.1786    1.6130 O   0  0  0  1  0  0  0  0  0  0  0  0
    2.0944    6.7887   -0.2724 C   0  0  0  1  0  0  0  0  0  0  0  0
    5.0877    4.8477    0.0761 O   0  0  0  1  0  0  0  0  0  0  0  0
    0.7819    6.5582   -0.9698 C   0  0  0  1  0  0  0  0  0  0  0  0
   -0.3222    5.9740   -0.1038 C   0  0  0  1  0  0  0  0  0  0  0  0
    3.2146    5.5379   -1.4145 H   0  0  0  1  0  0  0  0  0  0  0  0
    2.1899    7.5903    0.3833 H   0  0  0  1  0  0  0  0  0  0  0  0
    5.8181    5.3381   -0.3082 H   0  0  0  1  0  0  0  0  0  0  0  0
    0.9542    5.8851   -1.7835 H   0  0  0  1  0  0  0  0  0  0  0  0
    0.4406    7.4983   -1.3501 H   0  0  0  1  0  0  0  0  0  0  0  0
   -1.2423    5.9738   -0.6501 H   0  0  0  1  0  0  0  0  0  0  0  0
   -0.4329    6.5664    0.7804 H   0  0  0  1  0  0  0  0  0  0  0  0
   -0.0689    4.9706    0.1680 H   0  0  0  1  0  0  0  0  0  0  0  0
  1  2  1  0  0  0  0
  1  3  2  0  0  0  0
  1  5  1  0  0  0  0
  2  4  2  0  0  0  0
  2  8  1  0  0  0  0
  4  6  1  0  0  0  0
  4  9  1  0  0  0  0
  5 10  1  0  0  0  0
  6  7  1  0  0  0  0
  6 11  1  0  0  0  0
  6 12  1  0  0  0  0
  7 13  1  0  0  0  0
  7 14  1  0  0  0  0
  7 15  1  0  0  0  0
M  END
> <ConfClashScore>
0 

> <ConfOneFourInteractionScore>
-0.989347 

> <ConfScore>
0.525682 

> <ConfScorePBest>
0.00652372 

> <ConfTolerance>
0.0407156 

$$$$
*****
  PyMOL2.5          3D                             0

 15 14  0  0  0  0  0  0  0  0999 V2000
    4.1507    5.6323    0.5795 C   0  0  0  1  0  0  0  0  0  0  0  0
    3.1937    5.9704   -0.4678 C   0  0  0  1  0  0  0  0  0  0  0  0
    3.9542    5.8290    1.7629 O   0  0  0  1  0  0  0  0  0  0  0  0
    2.1564    6.7451   -0.2568 C   0  0  0  1  0  0  0  0  0  0  0  0
    5.2627    5.0874    0.1257 O   0  0  0  1  0  0  0  0  0  0  0  0
    0.8425    6.6411   -0.9839 C   0  0  0  1  0  0  0  0  0  0  0  0
    0.3951    7.8413   -1.8024 C   0  0  0  1  0  0  0  0  0  0  0  0
    3.3396    5.5812   -1.4211 H   0  0  0  1  0  0  0  0  0  0  0  0
    2.2487    7.4864    0.4667 H   0  0  0  1  0  0  0  0  0  0  0  0
    5.5307    5.5315   -0.6820 H   0  0  0  1  0  0  0  0  0  0  0  0
    0.0854    6.4529   -0.2517 H   0  0  0  1  0  0  0  0  0  0  0  0
    0.9104    5.8066   -1.6502 H   0  0  0  1  0  0  0  0  0  0  0  0
   -0.4541    7.5727   -2.3954 H   0  0  0  1  0  0  0  0  0  0  0  0
    1.1932    8.1530   -2.4434 H   0  0  0  1  0  0  0  0  0  0  0  0
    0.1314    8.6430   -1.1447 H   0  0  0  1  0  0  0  0  0  0  0  0
  1  2  1  0  0  0  0
  1  3  2  0  0  0  0
  1  5  1  0  0  0  0
  2  4  2  0  0  0  0
  2  8  1  0  0  0  0
  4  6  1  0  0  0  0
  4  9  1  0  0  0  0
  5 10  1  0  0  0  0
  6  7  1  0  0  0  0
  6 11  1  0  0  0  0
  6 12  1  0  0  0  0
  7 13  1  0  0  0  0
  7 14  1  0  0  0  0
  7 15  1  0  0  0  0
M  END
> <ConfClashScore>
0 

> <ConfOneFourInteractionScore>
-0.989347 

> <ConfScore>
0.527412 

> <ConfScorePBest>
0.00649524 

> <ConfTolerance>
0.029157 

$$$$
*****
  PyMOL2.5          3D                             0

 15 14  0  0  0  0  0  0  0  0999 V2000
    4.2651    5.7263    0.5335 C   0  0  0  1  0  0  0  0  0  0  0  0
    3.2948    6.1950   -0.4486 C   0  0  0  1  0  0  0  0  0  0  0  0
    3.9271    5.7113    1.7310 O   0  0  0  1  0  0  0  0  0  0  0  0
    2.0730    6.7499   -0.1621 C   0  0  0  1  0  0  0  0  0  0  0  0
    5.3950    5.3635    0.0963 O   0  0  0  1  0  0  0  0  0  0  0  0
    0.9894    6.5155   -1.1784 C   0  0  0  1  0  0  0  0  0  0  0  0
   -0.1748    5.7056   -0.6314 C   0  0  0  1  0  0  0  0  0  0  0  0
    3.5506    6.1007   -1.4522 H   0  0  0  1  0  0  0  0  0  0  0  0
    1.9064    7.2993    0.7051 H   0  0  0  1  0  0  0  0  0  0  0  0
    5.2778    4.8428   -0.7016 H   0  0  0  1  0  0  0  0  0  0  0  0
    1.4101    5.9887   -2.0094 H   0  0  0  1  0  0  0  0  0  0  0  0
    0.6196    7.4642   -1.5070 H   0  0  0  1  0  0  0  0  0  0  0  0
   -0.5831    6.2005    0.2249 H   0  0  0  1  0  0  0  0  0  0  0  0
    0.1692    4.7322   -0.3501 H   0  0  0  1  0  0  0  0  0  0  0  0
   -0.9299    5.6140   -1.3838 H   0  0  0  1  0  0  0  0  0  0  0  0
  1  2  1  0  0  0  0
  1  3  2  0  0  0  0
  1  5  1  0  0  0  0
  2  4  2  0  0  0  0
  2  8  1  0  0  0  0
  4  6  1  0  0  0  0
  4  9  1  0  0  0  0
  5 10  1  0  0  0  0
  6  7  1  0  0  0  0
  6 11  1  0  0  0  0
  6 12  1  0  0  0  0
  7 13  1  0  0  0  0
  7 14  1  0  0  0  0
  7 15  1  0  0  0  0
M  END
> <ConfClashScore>
0 

> <ConfOneFourInteractionScore>
-0.989347 

> <ConfScore>
0.532946 

> <ConfScorePBest>
0.00646676 

> <ConfTolerance>
0.0543827 

$$$$
*****
  PyMOL2.5          3D                             0

 15 14  0  0  0  0  0  0  0  0999 V2000
    4.1607    5.6218    0.5456 C   0  0  0  1  0  0  0  0  0  0  0  0
    3.1492    5.9311   -0.4577 C   0  0  0  1  0  0  0  0  0  0  0  0
    4.0083    5.9169    1.7149 O   0  0  0  1  0  0  0  0  0  0  0  0
    2.1383    6.7472   -0.2943 C   0  0  0  1  0  0  0  0  0  0  0  0
    5.2164    5.0155    0.0856 O   0  0  0  1  0  0  0  0  0  0  0  0
    0.7852    6.6574   -0.9478 C   0  0  0  1  0  0  0  0  0  0  0  0
    0.2923    7.9922   -1.4823 C   0  0  0  1  0  0  0  0  0  0  0  0
    3.2381    5.4635   -1.3824 H   0  0  0  1  0  0  0  0  0  0  0  0
    2.2863    7.5439    0.3576 H   0  0  0  1  0  0  0  0  0  0  0  0
    5.6967    5.6070   -0.4984 H   0  0  0  1  0  0  0  0  0  0  0  0
    0.0815    6.2988   -0.2259 H   0  0  0  1  0  0  0  0  0  0  0  0
    0.8454    5.9658   -1.7620 H   0  0  0  1  0  0  0  0  0  0  0  0
    1.0036    8.3822   -2.1800 H   0  0  0  1  0  0  0  0  0  0  0  0
    0.1752    8.6798   -0.6708 H   0  0  0  1  0  0  0  0  0  0  0  0
   -0.6489    7.8544   -1.9723 H   0  0  0  1  0  0  0  0  0  0  0  0
  1  2  1  0  0  0  0
  1  3  2  0  0  0  0
  1  5  1  0  0  0  0
  2  4  2  0  0  0  0
  2  8  1  0  0  0  0
  4  6  1  0  0  0  0
  4  9  1  0  0  0  0
  5 10  1  0  0  0  0
  6  7  1  0  0  0  0
  6 11  1  0  0  0  0
  6 12  1  0  0  0  0
  7 13  1  0  0  0  0
  7 14  1  0  0  0  0
  7 15  1  0  0  0  0
M  END
> <ConfClashScore>
0 

> <ConfOneFourInteractionScore>
-0.989347 

> <ConfScore>
0.533609 

> <ConfScorePBest>
0.00643828 

> <ConfTolerance>
0.0408225 

$$$$
*****
  PyMOL2.5          3D                             0

 15 14  0  0  0  0  0  0  0  0999 V2000
    4.2188    5.6157    0.5858 C   0  0  0  1  0  0  0  0  0  0  0  0
    3.3121    6.2805   -0.3459 C   0  0  0  1  0  0  0  0  0  0  0  0
    3.8745    5.3343    1.7181 O   0  0  0  1  0  0  0  0  0  0  0  0
    2.0454    6.5918   -0.2304 C   0  0  0  1  0  0  0  0  0  0  0  0
    5.4006    5.3582    0.1055 O   0  0  0  1  0  0  0  0  0  0  0  0
    1.0276    6.6763   -1.3364 C   0  0  0  1  0  0  0  0  0  0  0  0
    0.1866    7.9423   -1.3525 C   0  0  0  1  0  0  0  0  0  0  0  0
    3.7442    6.5519   -1.2521 H   0  0  0  1  0  0  0  0  0  0  0  0
    1.7057    6.8038    0.7294 H   0  0  0  1  0  0  0  0  0  0  0  0
    5.3503    5.2919   -0.8509 H   0  0  0  1  0  0  0  0  0  0  0  0
    0.3655    5.8413   -1.2400 H   0  0  0  1  0  0  0  0  0  0  0  0
    1.5479    6.6138   -2.2692 H   0  0  0  1  0  0  0  0  0  0  0  0
   -0.4626    7.9290   -2.2030 H   0  0  0  1  0  0  0  0  0  0  0  0
    0.8289    8.7962   -1.4077 H   0  0  0  1  0  0  0  0  0  0  0  0
   -0.3987    7.9928   -0.4582 H   0  0  0  1  0  0  0  0  0  0  0  0
  1  2  1  0  0  0  0
  1  3  2  0  0  0  0
  1  5  1  0  0  0  0
  2  4  2  0  0  0  0
  2  8  1  0  0  0  0
  4  6  1  0  0  0  0
  4  9  1  0  0  0  0
  5 10  1  0  0  0  0
  6  7  1  0  0  0  0
  6 11  1  0  0  0  0
  6 12  1  0  0  0  0
  7 13  1  0  0  0  0
  7 14  1  0  0  0  0
  7 15  1  0  0  0  0
M  END
> <ConfClashScore>
0 

> <ConfOneFourInteractionScore>
-0.989347 

> <ConfScore>
0.536412 

> <ConfScorePBest>
0.0064098 

> <ConfTolerance>
0.0377283 

$$$$
*****
  PyMOL2.5          3D                             0

 15 14  0  0  0  0  0  0  0  0999 V2000
    4.2353    5.7269    0.5354 C   0  0  0  1  0  0  0  0  0  0  0  0
    3.2739    6.1727   -0.4658 C   0  0  0  1  0  0  0  0  0  0  0  0
    3.8996    5.7285    1.7265 O   0  0  0  1  0  0  0  0  0  0  0  0
    2.0960    6.6925   -0.2149 C   0  0  0  1  0  0  0  0  0  0  0  0
    5.3991    5.3458    0.1615 O   0  0  0  1  0  0  0  0  0  0  0  0
    0.8968    6.5599   -1.0988 C   0  0  0  1  0  0  0  0  0  0  0  0
    0.2746    7.8701   -1.5537 C   0  0  0  1  0  0  0  0  0  0  0  0
    3.5452    6.0698   -1.4645 H   0  0  0  1  0  0  0  0  0  0  0  0
    1.9880    7.2375    0.6643 H   0  0  0  1  0  0  0  0  0  0  0  0
    5.3454    4.9707   -0.7205 H   0  0  0  1  0  0  0  0  0  0  0  0
    0.1517    6.0089   -0.5639 H   0  0  0  1  0  0  0  0  0  0  0  0
    1.1884    6.0127   -1.9709 H   0  0  0  1  0  0  0  0  0  0  0  0
    0.9612    8.3901   -2.1886 H   0  0  0  1  0  0  0  0  0  0  0  0
    0.0516    8.4743   -0.6993 H   0  0  0  1  0  0  0  0  0  0  0  0
   -0.6269    7.6681   -2.0934 H   0  0  0  1  0  0  0  0  0  0  0  0
  1  2  1  0  0  0  0
  1  3  2  0  0  0  0
  1  5  1  0  0  0  0
  2  4  2  0  0  0  0
  2  8  1  0  0  0  0
  4  6  1  0  0  0  0
  4  9  1  0  0  0  0
  5 10  1  0  0  0  0
  6  7  1  0  0  0  0
  6 11  1  0  0  0  0
  6 12  1  0  0  0  0
  7 13  1  0  0  0  0
  7 14  1  0  0  0  0
  7 15  1  0  0  0  0
M  END
> <ConfClashScore>
0 

> <ConfOneFourInteractionScore>
-0.989347 

> <ConfScore>
0.536412 

> <ConfScorePBest>
0.00638132 

> <ConfTolerance>
0.0349853 

$$$$
*****
  PyMOL2.5          3D                             0

 15 14  0  0  0  0  0  0  0  0999 V2000
    4.1936    5.6687    0.5733 C   0  0  0  1  0  0  0  0  0  0  0  0
    3.3215    6.2189   -0.4581 C   0  0  0  1  0  0  0  0  0  0  0  0
    3.8831    5.6974    1.7578 O   0  0  0  1  0  0  0  0  0  0  0  0
    2.1005    6.6225   -0.2111 C   0  0  0  1  0  0  0  0  0  0  0  0
    5.3051    5.1567    0.1305 O   0  0  0  1  0  0  0  0  0  0  0  0
    0.9294    6.6013   -1.1566 C   0  0  0  1  0  0  0  0  0  0  0  0
   -0.2223    5.8705   -0.4860 C   0  0  0  1  0  0  0  0  0  0  0  0
    3.6844    6.2938   -1.4299 H   0  0  0  1  0  0  0  0  0  0  0  0
    1.9203    6.9984    0.7417 H   0  0  0  1  0  0  0  0  0  0  0  0
    5.3412    5.2466   -0.8246 H   0  0  0  1  0  0  0  0  0  0  0  0
    1.2029    6.0930   -2.0576 H   0  0  0  1  0  0  0  0  0  0  0  0
    0.6345    7.6036   -1.3875 H   0  0  0  1  0  0  0  0  0  0  0  0
    0.0959    4.8902   -0.1983 H   0  0  0  1  0  0  0  0  0  0  0  0
   -1.0416    5.7929   -1.1698 H   0  0  0  1  0  0  0  0  0  0  0  0
   -0.5319    6.4138    0.3822 H   0  0  0  1  0  0  0  0  0  0  0  0
  1  2  1  0  0  0  0
  1  3  2  0  0  0  0
  1  5  1  0  0  0  0
  2  4  2  0  0  0  0
  2  8  1  0  0  0  0
  4  6  1  0  0  0  0
  4  9  1  0  0  0  0
  5 10  1  0  0  0  0
  6  7  1  0  0  0  0
  6 11  1  0  0  0  0
  6 12  1  0  0  0  0
  7 13  1  0  0  0  0
  7 14  1  0  0  0  0
  7 15  1  0  0  0  0
M  END
> <ConfClashScore>
0 

> <ConfOneFourInteractionScore>
-0.989347 

> <ConfScore>
0.544363 

> <ConfScorePBest>
0.00635284 

> <ConfTolerance>
0.0574194 

$$$$
*****
  PyMOL2.5          3D                             0

 15 14  0  0  0  0  0  0  0  0999 V2000
    4.2239    5.6568    0.5575 C   0  0  0  1  0  0  0  0  0  0  0  0
    3.3182    6.2180   -0.4377 C   0  0  0  1  0  0  0  0  0  0  0  0
    3.8689    5.6751    1.7500 O   0  0  0  1  0  0  0  0  0  0  0  0
    2.0939    6.6236   -0.2113 C   0  0  0  1  0  0  0  0  0  0  0  0
    5.3191    5.1853    0.1360 O   0  0  0  1  0  0  0  0  0  0  0  0
    0.9392    6.6056   -1.1769 C   0  0  0  1  0  0  0  0  0  0  0  0
   -0.2662    5.7914   -0.7359 C   0  0  0  1  0  0  0  0  0  0  0  0
    3.6751    6.3035   -1.4108 H   0  0  0  1  0  0  0  0  0  0  0  0
    1.8980    6.9989    0.7387 H   0  0  0  1  0  0  0  0  0  0  0  0
    5.3428    5.2375   -0.8223 H   0  0  0  1  0  0  0  0  0  0  0  0
    1.2899    6.2009   -2.1033 H   0  0  0  1  0  0  0  0  0  0  0  0
    0.6185    7.6153   -1.3268 H   0  0  0  1  0  0  0  0  0  0  0  0
   -1.0159    5.8213   -1.4988 H   0  0  0  1  0  0  0  0  0  0  0  0
   -0.6621    6.2024    0.1692 H   0  0  0  1  0  0  0  0  0  0  0  0
    0.0309    4.7773   -0.5678 H   0  0  0  1  0  0  0  0  0  0  0  0
  1  2  1  0  0  0  0
  1  3  2  0  0  0  0
  1  5  1  0  0  0  0
  2  4  2  0  0  0  0
  2  8  1  0  0  0  0
  4  6  1  0  0  0  0
  4  9  1  0  0  0  0
  5 10  1  0  0  0  0
  6  7  1  0  0  0  0
  6 11  1  0  0  0  0
  6 12  1  0  0  0  0
  7 13  1  0  0  0  0
  7 14  1  0  0  0  0
  7 15  1  0  0  0  0
M  END
> <ConfClashScore>
0 

> <ConfOneFourInteractionScore>
-0.989347 

> <ConfScore>
0.544363 

> <ConfScorePBest>
0.00632436 

> <ConfTolerance>
0.0401495 

$$$$
*****
  PyMOL2.5          3D                             0

 15 14  0  0  0  0  0  0  0  0999 V2000
    4.2069    5.6615    0.5543 C   0  0  0  1  0  0  0  0  0  0  0  0
    3.2420    6.0740   -0.4578 C   0  0  0  1  0  0  0  0  0  0  0  0
    3.9068    5.7834    1.7486 O   0  0  0  1  0  0  0  0  0  0  0  0
    2.1247    6.7217   -0.2283 C   0  0  0  1  0  0  0  0  0  0  0  0
    5.3369    5.1850    0.1863 O   0  0  0  1  0  0  0  0  0  0  0  0
    0.8717    6.5956   -1.0529 C   0  0  0  1  0  0  0  0  0  0  0  0
   -0.3833    6.0998   -0.3532 C   0  0  0  1  0  0  0  0  0  0  0  0
    3.4580    5.8342   -1.4465 H   0  0  0  1  0  0  0  0  0  0  0  0
    2.1029    7.3708    0.5840 H   0  0  0  1  0  0  0  0  0  0  0  0
    5.4294    5.2779   -0.7647 H   0  0  0  1  0  0  0  0  0  0  0  0
    1.0818    5.9167   -1.8527 H   0  0  0  1  0  0  0  0  0  0  0  0
    0.6535    7.5634   -1.4539 H   0  0  0  1  0  0  0  0  0  0  0  0
   -0.2542    5.0756   -0.0714 H   0  0  0  1  0  0  0  0  0  0  0  0
   -1.2184    6.1842   -1.0169 H   0  0  0  1  0  0  0  0  0  0  0  0
   -0.5609    6.6904    0.5211 H   0  0  0  1  0  0  0  0  0  0  0  0
  1  2  1  0  0  0  0
  1  3  2  0  0  0  0
  1  5  1  0  0  0  0
  2  4  2  0  0  0  0
  2  8  1  0  0  0  0
  4  6  1  0  0  0  0
  4  9  1  0  0  0  0
  5 10  1  0  0  0  0
  6  7  1  0  0  0  0
  6 11  1  0  0  0  0
  6 12  1  0  0  0  0
  7 13  1  0  0  0  0
  7 14  1  0  0  0  0
  7 15  1  0  0  0  0
M  END
> <ConfClashScore>
0 

> <ConfOneFourInteractionScore>
-0.989347 

> <ConfScore>
0.544363 

> <ConfScorePBest>
0.00629587 

> <ConfTolerance>
0.0442743 

$$$$
*****
  PyMOL2.5          3D                             0

 15 14  0  0  0  0  0  0  0  0999 V2000
    4.1895    5.6631    0.5972 C   0  0  0  1  0  0  0  0  0  0  0  0
    3.2797    6.1364   -0.4390 C   0  0  0  1  0  0  0  0  0  0  0  0
    3.8995    5.6132    1.7861 O   0  0  0  1  0  0  0  0  0  0  0  0
    2.1142    6.6965   -0.2322 C   0  0  0  1  0  0  0  0  0  0  0  0
    5.3675    5.2884    0.1377 O   0  0  0  1  0  0  0  0  0  0  0  0
    0.9054    6.6323   -1.1269 C   0  0  0  1  0  0  0  0  0  0  0  0
    0.1788    7.9345   -1.4213 C   0  0  0  1  0  0  0  0  0  0  0  0
    3.5822    6.0192   -1.4271 H   0  0  0  1  0  0  0  0  0  0  0  0
    2.0128    7.2452    0.6455 H   0  0  0  1  0  0  0  0  0  0  0  0
    5.3284    5.2099   -0.8182 H   0  0  0  1  0  0  0  0  0  0  0  0
    0.2018    5.9699   -0.6675 H   0  0  0  1  0  0  0  0  0  0  0  0
    1.2218    6.2234   -2.0637 H   0  0  0  1  0  0  0  0  0  0  0  0
    0.8752    8.6552   -1.7962 H   0  0  0  1  0  0  0  0  0  0  0  0
   -0.2678    8.3046   -0.5221 H   0  0  0  1  0  0  0  0  0  0  0  0
   -0.5825    7.7604   -2.1528 H   0  0  0  1  0  0  0  0  0  0  0  0
  1  2  1  0  0  0  0
  1  3  2  0  0  0  0
  1  5  1  0  0  0  0
  2  4  2  0  0  0  0
  2  8  1  0  0  0  0
  4  6  1  0  0  0  0
  4  9  1  0  0  0  0
  5 10  1  0  0  0  0
  6  7  1  0  0  0  0
  6 11  1  0  0  0  0
  6 12  1  0  0  0  0
  7 13  1  0  0  0  0
  7 14  1  0  0  0  0
  7 15  1  0  0  0  0
M  END
> <ConfClashScore>
0 

> <ConfOneFourInteractionScore>
-0.989347 

> <ConfScore>
0.547829 

> <ConfScorePBest>
0.00626739 

> <ConfTolerance>
0.0483853 

$$$$
*****
  PyMOL2.5          3D                             0

 15 14  0  0  0  0  0  0  0  0999 V2000
    4.1599    5.6807    0.5269 C   0  0  0  1  0  0  0  0  0  0  0  0
    3.1669    5.9623   -0.5106 C   0  0  0  1  0  0  0  0  0  0  0  0
    4.0407    6.1190    1.6643 O   0  0  0  1  0  0  0  0  0  0  0  0
    2.1403    6.7448   -0.2547 C   0  0  0  1  0  0  0  0  0  0  0  0
    5.1570    4.9396    0.1396 O   0  0  0  1  0  0  0  0  0  0  0  0
    0.8007    6.5914   -0.9210 C   0  0  0  1  0  0  0  0  0  0  0  0
   -0.3713    6.3580    0.0183 C   0  0  0  1  0  0  0  0  0  0  0  0
    3.2732    5.5416   -1.4558 H   0  0  0  1  0  0  0  0  0  0  0  0
    2.2612    7.5067    0.4427 H   0  0  0  1  0  0  0  0  0  0  0  0
    5.6792    5.4182   -0.5084 H   0  0  0  1  0  0  0  0  0  0  0  0
    0.8584    5.7585   -1.5902 H   0  0  0  1  0  0  0  0  0  0  0  0
    0.6049    7.4839   -1.4777 H   0  0  0  1  0  0  0  0  0  0  0  0
   -0.3141    7.0435    0.8379 H   0  0  0  1  0  0  0  0  0  0  0  0
   -0.3363    5.3551    0.3894 H   0  0  0  1  0  0  0  0  0  0  0  0
   -1.2884    6.5112   -0.5112 H   0  0  0  1  0  0  0  0  0  0  0  0
  1  2  1  0  0  0  0
  1  3  2  0  0  0  0
  1  5  1  0  0  0  0
  2  4  2  0  0  0  0
  2  8  1  0  0  0  0
  4  6  1  0  0  0  0
  4  9  1  0  0  0  0
  5 10  1  0  0  0  0
  6  7  1  0  0  0  0
  6 11  1  0  0  0  0
  6 12  1  0  0  0  0
  7 13  1  0  0  0  0
  7 14  1  0  0  0  0
  7 15  1  0  0  0  0
M  END
> <ConfClashScore>
0 

> <ConfOneFourInteractionScore>
-0.989347 

> <ConfScore>
0.552164 

> <ConfScorePBest>
0.00623891 

> <ConfTolerance>
0.0542422 

$$$$
*****
  PyMOL2.5          3D                             0

 15 14  0  0  0  0  0  0  0  0999 V2000
    4.1476    5.4113    0.5531 C   0  0  0  1  0  0  0  0  0  0  0  0
    2.8994    5.6553   -0.1633 C   0  0  0  1  0  0  0  0  0  0  0  0
    4.4044    4.3169    1.0392 O   0  0  0  1  0  0  0  0  0  0  0  0
    2.4323    6.7732   -0.6659 C   0  0  0  1  0  0  0  0  0  0  0  0
    4.9433    6.4385    0.6261 O   0  0  0  1  0  0  0  0  0  0  0  0
    0.9720    7.1158   -0.7932 C   0  0  0  1  0  0  0  0  0  0  0  0
    0.6743    8.4566   -0.1421 C   0  0  0  1  0  0  0  0  0  0  0  0
    2.2920    4.8213   -0.2943 H   0  0  0  1  0  0  0  0  0  0  0  0
    3.1223    7.4753   -1.0015 H   0  0  0  1  0  0  0  0  0  0  0  0
    5.4659    6.4967   -0.1771 H   0  0  0  1  0  0  0  0  0  0  0  0
    0.3904    6.3562   -0.3138 H   0  0  0  1  0  0  0  0  0  0  0  0
    0.7120    7.1637   -1.8300 H   0  0  0  1  0  0  0  0  0  0  0  0
   -0.3744    8.6595   -0.2057 H   0  0  0  1  0  0  0  0  0  0  0  0
    1.2176    9.2270   -0.6482 H   0  0  0  1  0  0  0  0  0  0  0  0
    0.9699    8.4272    0.8858 H   0  0  0  1  0  0  0  0  0  0  0  0
  1  2  1  0  0  0  0
  1  3  2  0  0  0  0
  1  5  1  0  0  0  0
  2  4  2  0  0  0  0
  2  8  1  0  0  0  0
  4  6  1  0  0  0  0
  4  9  1  0  0  0  0
  5 10  1  0  0  0  0
  6  7  1  0  0  0  0
  6 11  1  0  0  0  0
  6 12  1  0  0  0  0
  7 13  1  0  0  0  0
  7 14  1  0  0  0  0
  7 15  1  0  0  0  0
M  END
> <ConfClashScore>
0 

> <ConfOneFourInteractionScore>
-0.989347 

> <ConfScore>
0.560653 

> <ConfScorePBest>
0.00621043 

> <ConfTolerance>
0.0539955 

$$$$
*****
  PyMOL2.5          3D                             0

 15 14  0  0  0  0  0  0  0  0999 V2000
    4.1356    5.4750    0.5333 C   0  0  0  1  0  0  0  0  0  0  0  0
    2.8687    5.6034   -0.1777 C   0  0  0  1  0  0  0  0  0  0  0  0
    4.3977    4.3886    1.0677 O   0  0  0  1  0  0  0  0  0  0  0  0
    2.4293    6.7472   -0.6397 C   0  0  0  1  0  0  0  0  0  0  0  0
    4.8871    6.4919    0.5556 O   0  0  0  1  0  0  0  0  0  0  0  0
    1.0025    7.1682   -0.7952 C   0  0  0  1  0  0  0  0  0  0  0  0
    0.5971    8.4013   -0.0042 C   0  0  0  1  0  0  0  0  0  0  0  0
    2.2904    4.7515   -0.3239 H   0  0  0  1  0  0  0  0  0  0  0  0
    3.1507    7.4378   -0.9300 H   0  0  0  1  0  0  0  0  0  0  0  0
    5.5172    6.4407   -0.1669 H   0  0  0  1  0  0  0  0  0  0  0  0
    0.3823    6.3553   -0.4800 H   0  0  0  1  0  0  0  0  0  0  0  0
    0.8286    7.3691   -1.8317 H   0  0  0  1  0  0  0  0  0  0  0  0
    0.9322    8.3029    1.0072 H   0  0  0  1  0  0  0  0  0  0  0  0
   -0.4682    8.4997   -0.0188 H   0  0  0  1  0  0  0  0  0  0  0  0
    1.0420    9.2692   -0.4443 H   0  0  0  1  0  0  0  0  0  0  0  0
  1  2  1  0  0  0  0
  1  3  2  0  0  0  0
  1  5  1  0  0  0  0
  2  4  2  0  0  0  0
  2  8  1  0  0  0  0
  4  6  1  0  0  0  0
  4  9  1  0  0  0  0
  5 10  1  0  0  0  0
  6  7  1  0  0  0  0
  6 11  1  0  0  0  0
  6 12  1  0  0  0  0
  7 13  1  0  0  0  0
  7 14  1  0  0  0  0
  7 15  1  0  0  0  0
M  END
> <ConfClashScore>
0 

> <ConfOneFourInteractionScore>
-0.989347 

> <ConfScore>
0.560653 

> <ConfScorePBest>
0.00618195 

> <ConfTolerance>
0.0464018 

$$$$
*****
  PyMOL2.5          3D                             0

 15 14  0  0  0  0  0  0  0  0999 V2000
    4.1464    5.4104    0.5572 C   0  0  0  1  0  0  0  0  0  0  0  0
    2.9052    5.6595   -0.1695 C   0  0  0  1  0  0  0  0  0  0  0  0
    4.3863    4.3205    1.0618 O   0  0  0  1  0  0  0  0  0  0  0  0
    2.4372    6.7862   -0.6625 C   0  0  0  1  0  0  0  0  0  0  0  0
    4.9552    6.4281    0.6183 O   0  0  0  1  0  0  0  0  0  0  0  0
    0.9671    7.0859   -0.7840 C   0  0  0  1  0  0  0  0  0  0  0  0
    0.5488    7.4508   -2.1991 C   0  0  0  1  0  0  0  0  0  0  0  0
    2.3030    4.8250   -0.3194 H   0  0  0  1  0  0  0  0  0  0  0  0
    3.1166    7.5051   -0.9840 H   0  0  0  1  0  0  0  0  0  0  0  0
    5.4624    6.4836   -0.1949 H   0  0  0  1  0  0  0  0  0  0  0  0
    0.7319    7.9054   -0.1374 H   0  0  0  1  0  0  0  0  0  0  0  0
    0.4167    6.2206   -0.4786 H   0  0  0  1  0  0  0  0  0  0  0  0
    0.8478    6.6740   -2.8714 H   0  0  0  1  0  0  0  0  0  0  0  0
    1.0183    8.3691   -2.4840 H   0  0  0  1  0  0  0  0  0  0  0  0
   -0.5143    7.5661   -2.2379 H   0  0  0  1  0  0  0  0  0  0  0  0
  1  2  1  0  0  0  0
  1  3  2  0  0  0  0
  1  5  1  0  0  0  0
  2  4  2  0  0  0  0
  2  8  1  0  0  0  0
  4  6  1  0  0  0  0
  4  9  1  0  0  0  0
  5 10  1  0  0  0  0
  6  7  1  0  0  0  0
  6 11  1  0  0  0  0
  6 12  1  0  0  0  0
  7 13  1  0  0  0  0
  7 14  1  0  0  0  0
  7 15  1  0  0  0  0
M  END
> <ConfClashScore>
0 

> <ConfOneFourInteractionScore>
-0.989347 

> <ConfScore>
0.56412 

> <ConfScorePBest>
0.00615347 

> <ConfTolerance>
0.0393613 

$$$$
*****
  PyMOL2.5          3D                             0

 15 14  0  0  0  0  0  0  0  0999 V2000
    4.1566    5.3954    0.5290 C   0  0  0  1  0  0  0  0  0  0  0  0
    2.8954    5.6778   -0.1505 C   0  0  0  1  0  0  0  0  0  0  0  0
    4.4480    4.2676    0.8921 O   0  0  0  1  0  0  0  0  0  0  0  0
    2.4369    6.8252   -0.7471 C   0  0  0  1  0  0  0  0  0  0  0  0
    4.9230    6.4319    0.7076 O   0  0  0  1  0  0  0  0  0  0  0  0
    0.9463    7.0331   -0.7161 C   0  0  0  1  0  0  0  0  0  0  0  0
    0.3192    7.0547   -2.1005 C   0  0  0  1  0  0  0  0  0  0  0  0
    2.2345    4.8756   -0.1886 H   0  0  0  1  0  0  0  0  0  0  0  0
    3.0801    7.5097   -1.1935 H   0  0  0  1  0  0  0  0  0  0  0  0
    5.5583    6.4881   -0.0099 H   0  0  0  1  0  0  0  0  0  0  0  0
    0.7427    7.9671   -0.2353 H   0  0  0  1  0  0  0  0  0  0  0  0
    0.5032    6.2379   -0.1538 H   0  0  0  1  0  0  0  0  0  0  0  0
   -0.6916    7.3982   -2.0294 H   0  0  0  1  0  0  0  0  0  0  0  0
    0.3321    6.0675   -2.5130 H   0  0  0  1  0  0  0  0  0  0  0  0
    0.8759    7.7136   -2.7337 H   0  0  0  1  0  0  0  0  0  0  0  0
  1  2  1  0  0  0  0
  1  3  2  0  0  0  0
  1  5  1  0  0  0  0
  2  4  2  0  0  0  0
  2  8  1  0  0  0  0
  4  6  1  0  0  0  0
  4  9  1  0  0  0  0
  5 10  1  0  0  0  0
  6  7  1  0  0  0  0
  6 11  1  0  0  0  0
  6 12  1  0  0  0  0
  7 13  1  0  0  0  0
  7 14  1  0  0  0  0
  7 15  1  0  0  0  0
M  END
> <ConfClashScore>
0 

> <ConfOneFourInteractionScore>
-0.989347 

> <ConfScore>
0.56412 

> <ConfScorePBest>
0.00612499 

> <ConfTolerance>
0.0621853 

$$$$
*****
  PyMOL2.5          3D                             0

 15 14  0  0  0  0  0  0  0  0999 V2000
    4.2280    5.8589    0.3037 C   0  0  0  1  0  0  0  0  0  0  0  0
    3.0467    5.8674   -0.5603 C   0  0  0  1  0  0  0  0  0  0  0  0
    4.2711    6.5147    1.3372 O   0  0  0  1  0  0  0  0  0  0  0  0
    2.1246    6.7854   -0.4126 C   0  0  0  1  0  0  0  0  0  0  0  0
    5.2048    5.1088   -0.1167 O   0  0  0  1  0  0  0  0  0  0  0  0
    0.6517    6.6443   -0.6897 C   0  0  0  1  0  0  0  0  0  0  0  0
   -0.1992    6.7043    0.5683 C   0  0  0  1  0  0  0  0  0  0  0  0
    2.9390    5.1401   -1.2958 H   0  0  0  1  0  0  0  0  0  0  0  0
    2.4445    7.7124   -0.0663 H   0  0  0  1  0  0  0  0  0  0  0  0
    5.7687    4.8723    0.6234 H   0  0  0  1  0  0  0  0  0  0  0  0
    0.4841    5.7029   -1.1697 H   0  0  0  1  0  0  0  0  0  0  0  0
    0.3507    7.4368   -1.3426 H   0  0  0  1  0  0  0  0  0  0  0  0
   -1.2338    6.6384    0.3032 H   0  0  0  1  0  0  0  0  0  0  0  0
   -0.0196    7.6286    1.0765 H   0  0  0  1  0  0  0  0  0  0  0  0
    0.0567    5.8879    1.2109 H   0  0  0  1  0  0  0  0  0  0  0  0
  1  2  1  0  0  0  0
  1  3  2  0  0  0  0
  1  5  1  0  0  0  0
  2  4  2  0  0  0  0
  2  8  1  0  0  0  0
  4  6  1  0  0  0  0
  4  9  1  0  0  0  0
  5 10  1  0  0  0  0
  6  7  1  0  0  0  0
  6 11  1  0  0  0  0
  6 12  1  0  0  0  0
  7 13  1  0  0  0  0
  7 14  1  0  0  0  0
  7 15  1  0  0  0  0
M  END
> <ConfClashScore>
0 

> <ConfOneFourInteractionScore>
-0.989347 

> <ConfScore>
0.569148 

> <ConfScorePBest>
0.00609651 

> <ConfTolerance>
0.0541115 

$$$$
*****
  PyMOL2.5          3D                             0

 15 14  0  0  0  0  0  0  0  0999 V2000
    4.2891    5.8618    0.2687 C   0  0  0  1  0  0  0  0  0  0  0  0
    3.0759    5.9171   -0.5378 C   0  0  0  1  0  0  0  0  0  0  0  0
    4.4113    6.6769    1.2010 O   0  0  0  1  0  0  0  0  0  0  0  0
    2.1316    6.8183   -0.4331 C   0  0  0  1  0  0  0  0  0  0  0  0
    5.1425    4.9802   -0.0376 O   0  0  0  1  0  0  0  0  0  0  0  0
    0.6646    6.6319   -0.7148 C   0  0  0  1  0  0  0  0  0  0  0  0
   -0.1744    7.1077    0.4599 C   0  0  0  1  0  0  0  0  0  0  0  0
    2.9496    5.1776   -1.2581 H   0  0  0  1  0  0  0  0  0  0  0  0
    2.4271    7.7655   -0.1216 H   0  0  0  1  0  0  0  0  0  0  0  0
    5.5874    4.6751    0.7565 H   0  0  0  1  0  0  0  0  0  0  0  0
    0.4697    5.5941   -0.8877 H   0  0  0  1  0  0  0  0  0  0  0  0
    0.4003    7.1948   -1.5855 H   0  0  0  1  0  0  0  0  0  0  0  0
   -1.2113    7.0631    0.1995 H   0  0  0  1  0  0  0  0  0  0  0  0
    0.0894    8.1162    0.7010 H   0  0  0  1  0  0  0  0  0  0  0  0
    0.0080    6.4787    1.3061 H   0  0  0  1  0  0  0  0  0  0  0  0
  1  2  1  0  0  0  0
  1  3  2  0  0  0  0
  1  5  1  0  0  0  0
  2  4  2  0  0  0  0
  2  8  1  0  0  0  0
  4  6  1  0  0  0  0
  4  9  1  0  0  0  0
  5 10  1  0  0  0  0
  6  7  1  0  0  0  0
  6 11  1  0  0  0  0
  6 12  1  0  0  0  0
  7 13  1  0  0  0  0
  7 14  1  0  0  0  0
  7 15  1  0  0  0  0
M  END
> <ConfClashScore>
0 

> <ConfOneFourInteractionScore>
-0.989347 

> <ConfScore>
0.569148 

> <ConfScorePBest>
0.00606803 

> <ConfTolerance>
0.0368071 

$$$$
*****
  PyMOL2.5          3D                             0

 15 14  0  0  0  0  0  0  0  0999 V2000
    4.1958    5.3593    0.3695 C   0  0  0  1  0  0  0  0  0  0  0  0
    2.8657    5.6015   -0.1761 C   0  0  0  1  0  0  0  0  0  0  0  0
    4.4229    4.4080    1.1067 O   0  0  0  1  0  0  0  0  0  0  0  0
    2.4719    6.7048   -0.7663 C   0  0  0  1  0  0  0  0  0  0  0  0
    5.0979    6.2258    0.0101 O   0  0  0  1  0  0  0  0  0  0  0  0
    1.0634    7.2356   -0.7472 C   0  0  0  1  0  0  0  0  0  0  0  0
    0.9356    8.5585   -0.0097 C   0  0  0  1  0  0  0  0  0  0  0  0
    2.1694    4.8338   -0.0901 H   0  0  0  1  0  0  0  0  0  0  0  0
    3.1861    7.2537   -1.2861 H   0  0  0  1  0  0  0  0  0  0  0  0
    5.2061    6.8817    0.7026 H   0  0  0  1  0  0  0  0  0  0  0  0
    0.4346    6.5156   -0.2665 H   0  0  0  1  0  0  0  0  0  0  0  0
    0.7386    7.3759   -1.7571 H   0  0  0  1  0  0  0  0  0  0  0  0
   -0.0972    8.8287    0.0627 H   0  0  0  1  0  0  0  0  0  0  0  0
    1.4660    9.3179   -0.5455 H   0  0  0  1  0  0  0  0  0  0  0  0
    1.3481    8.4602    0.9727 H   0  0  0  1  0  0  0  0  0  0  0  0
  1  2  1  0  0  0  0
  1  3  2  0  0  0  0
  1  5  1  0  0  0  0
  2  4  2  0  0  0  0
  2  8  1  0  0  0  0
  4  6  1  0  0  0  0
  4  9  1  0  0  0  0
  5 10  1  0  0  0  0
  6  7  1  0  0  0  0
  6 11  1  0  0  0  0
  6 12  1  0  0  0  0
  7 13  1  0  0  0  0
  7 14  1  0  0  0  0
  7 15  1  0  0  0  0
M  END
> <ConfClashScore>
0 

> <ConfOneFourInteractionScore>
-0.989347 

> <ConfScore>
0.570219 

> <ConfScorePBest>
0.00603955 

> <ConfTolerance>
0.0444278 

$$$$
*****
  PyMOL2.5          3D                             0

 15 14  0  0  0  0  0  0  0  0999 V2000
    4.2447    5.3928    0.3198 C   0  0  0  1  0  0  0  0  0  0  0  0
    2.8905    5.6793   -0.1450 C   0  0  0  1  0  0  0  0  0  0  0  0
    4.4534    4.3028    0.8825 O   0  0  0  1  0  0  0  0  0  0  0  0
    2.4178    6.6907   -0.8295 C   0  0  0  1  0  0  0  0  0  0  0  0
    5.1215    6.2813    0.1165 O   0  0  0  1  0  0  0  0  0  0  0  0
    1.0388    7.2649   -0.7531 C   0  0  0  1  0  0  0  0  0  0  0  0
    0.1887    6.9361   -1.9695 C   0  0  0  1  0  0  0  0  0  0  0  0
    2.1836    4.9604    0.1100 H   0  0  0  1  0  0  0  0  0  0  0  0
    3.0723    7.1439   -1.4987 H   0  0  0  1  0  0  0  0  0  0  0  0
    5.2566    6.7881    0.9206 H   0  0  0  1  0  0  0  0  0  0  0  0
    1.1169    8.3288   -0.6697 H   0  0  0  1  0  0  0  0  0  0  0  0
    0.5544    6.8731    0.1168 H   0  0  0  1  0  0  0  0  0  0  0  0
    0.2480    5.8875   -2.1738 H   0  0  0  1  0  0  0  0  0  0  0  0
    0.5486    7.4848   -2.8147 H   0  0  0  1  0  0  0  0  0  0  0  0
   -0.8289    7.2046   -1.7764 H   0  0  0  1  0  0  0  0  0  0  0  0
  1  2  1  0  0  0  0
  1  3  2  0  0  0  0
  1  5  1  0  0  0  0
  2  4  2  0  0  0  0
  2  8  1  0  0  0  0
  4  6  1  0  0  0  0
  4  9  1  0  0  0  0
  5 10  1  0  0  0  0
  6  7  1  0  0  0  0
  6 11  1  0  0  0  0
  6 12  1  0  0  0  0
  7 13  1  0  0  0  0
  7 14  1  0  0  0  0
  7 15  1  0  0  0  0
M  END
> <ConfClashScore>
0 

> <ConfOneFourInteractionScore>
-0.989347 

> <ConfScore>
0.573685 

> <ConfScorePBest>
0.00601107 

> <ConfTolerance>
0.0423685 

$$$$
*****
  PyMOL2.5          3D                             0

 15 14  0  0  0  0  0  0  0  0999 V2000
    4.2269    5.3819    0.3453 C   0  0  0  1  0  0  0  0  0  0  0  0
    2.8843    5.6382   -0.1669 C   0  0  0  1  0  0  0  0  0  0  0  0
    4.4094    4.3560    1.0254 O   0  0  0  1  0  0  0  0  0  0  0  0
    2.4536    6.7059   -0.7954 C   0  0  0  1  0  0  0  0  0  0  0  0
    5.1217    6.2289    0.0597 O   0  0  0  1  0  0  0  0  0  0  0  0
    1.0435    7.2293   -0.7362 C   0  0  0  1  0  0  0  0  0  0  0  0
    0.3309    7.1739   -2.0777 C   0  0  0  1  0  0  0  0  0  0  0  0
    2.1851    4.8834   -0.0152 H   0  0  0  1  0  0  0  0  0  0  0  0
    3.1373    7.2298   -1.3782 H   0  0  0  1  0  0  0  0  0  0  0  0
    5.2174    6.8508    0.7847 H   0  0  0  1  0  0  0  0  0  0  0  0
    1.0716    8.2472   -0.4073 H   0  0  0  1  0  0  0  0  0  0  0  0
    0.4914    6.6418   -0.0327 H   0  0  0  1  0  0  0  0  0  0  0  0
    0.9423    7.6331   -2.8261 H   0  0  0  1  0  0  0  0  0  0  0  0
   -0.6003    7.6963   -2.0084 H   0  0  0  1  0  0  0  0  0  0  0  0
    0.1492    6.1533   -2.3428 H   0  0  0  1  0  0  0  0  0  0  0  0
  1  2  1  0  0  0  0
  1  3  2  0  0  0  0
  1  5  1  0  0  0  0
  2  4  2  0  0  0  0
  2  8  1  0  0  0  0
  4  6  1  0  0  0  0
  4  9  1  0  0  0  0
  5 10  1  0  0  0  0
  6  7  1  0  0  0  0
  6 11  1  0  0  0  0
  6 12  1  0  0  0  0
  7 13  1  0  0  0  0
  7 14  1  0  0  0  0
  7 15  1  0  0  0  0
M  END
> <ConfClashScore>
0 

> <ConfOneFourInteractionScore>
-0.989347 

> <ConfScore>
0.573685 

> <ConfScorePBest>
0.00598259 

> <ConfTolerance>
0.0329808 

$$$$
*****
  PyMOL2.5          3D                             0

 15 14  0  0  0  0  0  0  0  0999 V2000
    4.1481    5.3702    0.5700 C   0  0  0  1  0  0  0  0  0  0  0  0
    2.8955    5.5684   -0.1503 C   0  0  0  1  0  0  0  0  0  0  0  0
    4.4138    4.3116    1.1052 O   0  0  0  1  0  0  0  0  0  0  0  0
    2.5387    6.7278   -0.6436 C   0  0  0  1  0  0  0  0  0  0  0  0
    4.9399    6.4105    0.5870 O   0  0  0  1  0  0  0  0  0  0  0  0
    1.1452    7.2432   -0.8168 C   0  0  0  1  0  0  0  0  0  0  0  0
    0.9209    8.5894   -0.1476 C   0  0  0  1  0  0  0  0  0  0  0  0
    2.2595    4.7554   -0.2775 H   0  0  0  1  0  0  0  0  0  0  0  0
    3.3075    7.3586   -0.9479 H   0  0  0  1  0  0  0  0  0  0  0  0
    5.0309    6.7586   -0.3030 H   0  0  0  1  0  0  0  0  0  0  0  0
    0.4648    6.5345   -0.3929 H   0  0  0  1  0  0  0  0  0  0  0  0
    0.9478    7.3460   -1.8634 H   0  0  0  1  0  0  0  0  0  0  0  0
    0.9634    8.4715    0.9150 H   0  0  0  1  0  0  0  0  0  0  0  0
   -0.0397    8.9700   -0.4259 H   0  0  0  1  0  0  0  0  0  0  0  0
    1.6809    9.2743   -0.4610 H   0  0  0  1  0  0  0  0  0  0  0  0
  1  2  1  0  0  0  0
  1  3  2  0  0  0  0
  1  5  1  0  0  0  0
  2  4  2  0  0  0  0
  2  8  1  0  0  0  0
  4  6  1  0  0  0  0
  4  9  1  0  0  0  0
  5 10  1  0  0  0  0
  6  7  1  0  0  0  0
  6 11  1  0  0  0  0
  6 12  1  0  0  0  0
  7 13  1  0  0  0  0
  7 14  1  0  0  0  0
  7 15  1  0  0  0  0
M  END
> <ConfClashScore>
0 

> <ConfOneFourInteractionScore>
-0.989347 

> <ConfScore>
0.583191 

> <ConfScorePBest>
0.00595411 

> <ConfTolerance>
0.0377139 

$$$$
*****
  PyMOL2.5          3D                             0

 15 14  0  0  0  0  0  0  0  0999 V2000
    4.1711    5.3522    0.5559 C   0  0  0  1  0  0  0  0  0  0  0  0
    2.9062    5.6158   -0.1232 C   0  0  0  1  0  0  0  0  0  0  0  0
    4.4518    4.2374    0.9785 O   0  0  0  1  0  0  0  0  0  0  0  0
    2.5166    6.7299   -0.6904 C   0  0  0  1  0  0  0  0  0  0  0  0
    4.9545    6.3854    0.6685 O   0  0  0  1  0  0  0  0  0  0  0  0
    1.1142    7.2347   -0.8162 C   0  0  0  1  0  0  0  0  0  0  0  0
    0.7606    8.4073    0.0840 C   0  0  0  1  0  0  0  0  0  0  0  0
    2.2336    4.8236   -0.1611 H   0  0  0  1  0  0  0  0  0  0  0  0
    3.2631    7.3287   -1.0975 H   0  0  0  1  0  0  0  0  0  0  0  0
    5.0681    6.7966   -0.1915 H   0  0  0  1  0  0  0  0  0  0  0  0
    0.4509    6.4281   -0.5834 H   0  0  0  1  0  0  0  0  0  0  0  0
    0.9630    7.5400   -1.8306 H   0  0  0  1  0  0  0  0  0  0  0  0
    0.9358    8.1394    1.1049 H   0  0  0  1  0  0  0  0  0  0  0  0
   -0.2713    8.6584   -0.0466 H   0  0  0  1  0  0  0  0  0  0  0  0
    1.3684    9.2497   -0.1728 H   0  0  0  1  0  0  0  0  0  0  0  0
  1  2  1  0  0  0  0
  1  3  2  0  0  0  0
  1  5  1  0  0  0  0
  2  4  2  0  0  0  0
  2  8  1  0  0  0  0
  4  6  1  0  0  0  0
  4  9  1  0  0  0  0
  5 10  1  0  0  0  0
  6  7  1  0  0  0  0
  6 11  1  0  0  0  0
  6 12  1  0  0  0  0
  7 13  1  0  0  0  0
  7 14  1  0  0  0  0
  7 15  1  0  0  0  0
M  END
> <ConfClashScore>
0 

> <ConfOneFourInteractionScore>
-0.989347 

> <ConfScore>
0.583191 

> <ConfScorePBest>
0.00592562 

> <ConfTolerance>
0.0550649 

$$$$
*****
  PyMOL2.5          3D                             0

 15 14  0  0  0  0  0  0  0  0999 V2000
    4.2405    5.3491    0.3549 C   0  0  0  1  0  0  0  0  0  0  0  0
    2.8795    5.6123   -0.0982 C   0  0  0  1  0  0  0  0  0  0  0  0
    4.4890    4.2344    0.8489 O   0  0  0  1  0  0  0  0  0  0  0  0
    2.5634    6.6598   -0.8292 C   0  0  0  1  0  0  0  0  0  0  0  0
    5.0832    6.2815    0.2132 O   0  0  0  1  0  0  0  0  0  0  0  0
    1.2177    7.3318   -0.7693 C   0  0  0  1  0  0  0  0  0  0  0  0
    1.3064    8.8144   -0.4460 C   0  0  0  1  0  0  0  0  0  0  0  0
    2.1277    4.9445    0.1674 H   0  0  0  1  0  0  0  0  0  0  0  0
    3.2785    7.0422   -1.4803 H   0  0  0  1  0  0  0  0  0  0  0  0
    4.7997    7.0488    0.7156 H   0  0  0  1  0  0  0  0  0  0  0  0
    0.6312    6.8529   -0.0134 H   0  0  0  1  0  0  0  0  0  0  0  0
    0.7379    7.2184   -1.7190 H   0  0  0  1  0  0  0  0  0  0  0  0
    1.7374    8.9430    0.5249 H   0  0  0  1  0  0  0  0  0  0  0  0
    0.3255    9.2415   -0.4600 H   0  0  0  1  0  0  0  0  0  0  0  0
    1.9189    9.3022   -1.1753 H   0  0  0  1  0  0  0  0  0  0  0  0
  1  2  1  0  0  0  0
  1  3  2  0  0  0  0
  1  5  1  0  0  0  0
  2  4  2  0  0  0  0
  2  8  1  0  0  0  0
  4  6  1  0  0  0  0
  4  9  1  0  0  0  0
  5 10  1  0  0  0  0
  6  7  1  0  0  0  0
  6 11  1  0  0  0  0
  6 12  1  0  0  0  0
  7 13  1  0  0  0  0
  7 14  1  0  0  0  0
  7 15  1  0  0  0  0
M  END
> <ConfClashScore>
0 

> <ConfOneFourInteractionScore>
-0.989347 

> <ConfScore>
0.584465 

> <ConfScorePBest>
0.00589714 

> <ConfTolerance>
0.0501224 

$$$$
*****
  PyMOL2.5          3D                             0

 15 14  0  0  0  0  0  0  0  0999 V2000
    4.2002    5.6695    0.5738 C   0  0  0  1  0  0  0  0  0  0  0  0
    3.3426    6.2383   -0.4668 C   0  0  0  1  0  0  0  0  0  0  0  0
    3.8565    5.7307    1.7428 O   0  0  0  1  0  0  0  0  0  0  0  0
    2.1149    6.6060   -0.1873 C   0  0  0  1  0  0  0  0  0  0  0  0
    5.2727    5.1431    0.1149 O   0  0  0  1  0  0  0  0  0  0  0  0
    0.9654    6.5772   -1.1587 C   0  0  0  1  0  0  0  0  0  0  0  0
   -0.0711    5.4785   -0.9888 C   0  0  0  1  0  0  0  0  0  0  0  0
    3.7087    6.3516   -1.4336 H   0  0  0  1  0  0  0  0  0  0  0  0
    1.9213    6.9427    0.7775 H   0  0  0  1  0  0  0  0  0  0  0  0
    5.2969    5.2453   -0.8394 H   0  0  0  1  0  0  0  0  0  0  0  0
    1.3786    6.4784   -2.1408 H   0  0  0  1  0  0  0  0  0  0  0  0
    0.4549    7.5141   -1.0786 H   0  0  0  1  0  0  0  0  0  0  0  0
   -0.5242    5.5611   -0.0230 H   0  0  0  1  0  0  0  0  0  0  0  0
    0.4034    4.5237   -1.0793 H   0  0  0  1  0  0  0  0  0  0  0  0
   -0.8222    5.5771   -1.7445 H   0  0  0  1  0  0  0  0  0  0  0  0
  1  2  1  0  0  0  0
  1  3  2  0  0  0  0
  1  5  1  0  0  0  0
  2  4  2  0  0  0  0
  2  8  1  0  0  0  0
  4  6  1  0  0  0  0
  4  9  1  0  0  0  0
  5 10  1  0  0  0  0
  6  7  1  0  0  0  0
  6 11  1  0  0  0  0
  6 12  1  0  0  0  0
  7 13  1  0  0  0  0
  7 14  1  0  0  0  0
  7 15  1  0  0  0  0
M  END
> <ConfClashScore>
0 

> <ConfOneFourInteractionScore>
-0.989347 

> <ConfScore>
0.58663 

> <ConfScorePBest>
0.00586866 

> <ConfTolerance>
0.061869 

$$$$
*****
  PyMOL2.5          3D                             0

 15 14  0  0  0  0  0  0  0  0999 V2000
    4.1476    5.3732    0.5555 C   0  0  0  1  0  0  0  0  0  0  0  0
    2.8795    5.5788   -0.1351 C   0  0  0  1  0  0  0  0  0  0  0  0
    4.4611    4.2791    1.0080 O   0  0  0  1  0  0  0  0  0  0  0  0
    2.5432    6.7271   -0.6726 C   0  0  0  1  0  0  0  0  0  0  0  0
    4.8972    6.4332    0.6447 O   0  0  0  1  0  0  0  0  0  0  0  0
    1.1415    7.2325   -0.8028 C   0  0  0  1  0  0  0  0  0  0  0  0
    0.7294    7.4800   -2.2448 C   0  0  0  1  0  0  0  0  0  0  0  0
    2.2146    4.7822   -0.2042 H   0  0  0  1  0  0  0  0  0  0  0  0
    3.3083    7.3311   -1.0353 H   0  0  0  1  0  0  0  0  0  0  0  0
    5.0861    6.7671   -0.2353 H   0  0  0  1  0  0  0  0  0  0  0  0
    1.0596    8.1525   -0.2625 H   0  0  0  1  0  0  0  0  0  0  0  0
    0.4776    6.5087   -0.3783 H   0  0  0  1  0  0  0  0  0  0  0  0
    0.7105    6.5510   -2.7753 H   0  0  0  1  0  0  0  0  0  0  0  0
    1.4321    8.1408   -2.7079 H   0  0  0  1  0  0  0  0  0  0  0  0
   -0.2446    7.9225   -2.2662 H   0  0  0  1  0  0  0  0  0  0  0  0
  1  2  1  0  0  0  0
  1  3  2  0  0  0  0
  1  5  1  0  0  0  0
  2  4  2  0  0  0  0
  2  8  1  0  0  0  0
  4  6  1  0  0  0  0
  4  9  1  0  0  0  0
  5 10  1  0  0  0  0
  6  7  1  0  0  0  0
  6 11  1  0  0  0  0
  6 12  1  0  0  0  0
  7 13  1  0  0  0  0
  7 14  1  0  0  0  0
  7 15  1  0  0  0  0
M  END
> <ConfClashScore>
0 

> <ConfOneFourInteractionScore>
-0.989347 

> <ConfScore>
0.586658 

> <ConfScorePBest>
0.00584018 

> <ConfTolerance>
0.0339658 

$$$$
*****
  PyMOL2.5          3D                             0

 15 14  0  0  0  0  0  0  0  0999 V2000
    4.1349    5.3617    0.5553 C   0  0  0  1  0  0  0  0  0  0  0  0
    2.8731    5.5800   -0.1426 C   0  0  0  1  0  0  0  0  0  0  0  0
    4.4793    4.2892    1.0050 O   0  0  0  1  0  0  0  0  0  0  0  0
    2.5429    6.7527   -0.6846 C   0  0  0  1  0  0  0  0  0  0  0  0
    4.8792    6.4457    0.6566 O   0  0  0  1  0  0  0  0  0  0  0  0
    1.1074    7.1910   -0.7807 C   0  0  0  1  0  0  0  0  0  0  0  0
    0.6095    7.4882   -2.1858 C   0  0  0  1  0  0  0  0  0  0  0  0
    2.2032    4.7884   -0.2209 H   0  0  0  1  0  0  0  0  0  0  0  0
    3.2921    7.3760   -1.0477 H   0  0  0  1  0  0  0  0  0  0  0  0
    5.1672    6.7195   -0.2173 H   0  0  0  1  0  0  0  0  0  0  0  0
    0.9937    8.0795   -0.1954 H   0  0  0  1  0  0  0  0  0  0  0  0
    0.4967    6.4133   -0.3718 H   0  0  0  1  0  0  0  0  0  0  0  0
    1.1967    8.2735   -2.6141 H   0  0  0  1  0  0  0  0  0  0  0  0
   -0.4156    7.7919   -2.1439 H   0  0  0  1  0  0  0  0  0  0  0  0
    0.6971    6.6084   -2.7884 H   0  0  0  1  0  0  0  0  0  0  0  0
  1  2  1  0  0  0  0
  1  3  2  0  0  0  0
  1  5  1  0  0  0  0
  2  4  2  0  0  0  0
  2  8  1  0  0  0  0
  4  6  1  0  0  0  0
  4  9  1  0  0  0  0
  5 10  1  0  0  0  0
  6  7  1  0  0  0  0
  6 11  1  0  0  0  0
  6 12  1  0  0  0  0
  7 13  1  0  0  0  0
  7 14  1  0  0  0  0
  7 15  1  0  0  0  0
M  END
> <ConfClashScore>
0 

> <ConfOneFourInteractionScore>
-0.989347 

> <ConfScore>
0.586658 

> <ConfScorePBest>
0.0058117 

> <ConfTolerance>
0.0480349 

$$$$
*****
  PyMOL2.5          3D                             0

 15 14  0  0  0  0  0  0  0  0999 V2000
    4.2045    5.3949    0.3500 C   0  0  0  1  0  0  0  0  0  0  0  0
    2.8717    5.6593   -0.1847 C   0  0  0  1  0  0  0  0  0  0  0  0
    4.4319    4.4192    1.0385 O   0  0  0  1  0  0  0  0  0  0  0  0
    2.3845    6.7188   -0.7803 C   0  0  0  1  0  0  0  0  0  0  0  0
    5.1049    6.2782    0.0297 O   0  0  0  1  0  0  0  0  0  0  0  0
    0.9609    7.2030   -0.7471 C   0  0  0  1  0  0  0  0  0  0  0  0
    0.8197    8.5973   -0.1587 C   0  0  0  1  0  0  0  0  0  0  0  0
    2.1970    4.8756   -0.0741 H   0  0  0  1  0  0  0  0  0  0  0  0
    3.0546    7.2872   -1.3366 H   0  0  0  1  0  0  0  0  0  0  0  0
    5.4694    6.6681    0.8276 H   0  0  0  1  0  0  0  0  0  0  0  0
    0.3838    6.5235   -0.1553 H   0  0  0  1  0  0  0  0  0  0  0  0
    0.5821    7.2156   -1.7477 H   0  0  0  1  0  0  0  0  0  0  0  0
    1.2805    9.3089   -0.8116 H   0  0  0  1  0  0  0  0  0  0  0  0
    1.2972    8.6303    0.7983 H   0  0  0  1  0  0  0  0  0  0  0  0
   -0.2179    8.8343   -0.0485 H   0  0  0  1  0  0  0  0  0  0  0  0
  1  2  1  0  0  0  0
  1  3  2  0  0  0  0
  1  5  1  0  0  0  0
  2  4  2  0  0  0  0
  2  8  1  0  0  0  0
  4  6  1  0  0  0  0
  4  9  1  0  0  0  0
  5 10  1  0  0  0  0
  6  7  1  0  0  0  0
  6 11  1  0  0  0  0
  6 12  1  0  0  0  0
  7 13  1  0  0  0  0
  7 14  1  0  0  0  0
  7 15  1  0  0  0  0
M  END
> <ConfClashScore>
0 

> <ConfOneFourInteractionScore>
-0.989347 

> <ConfScore>
0.589876 

> <ConfScorePBest>
0.00578322 

> <ConfTolerance>
0.0465718 

$$$$
*****
  PyMOL2.5          3D                             0

 15 14  0  0  0  0  0  0  0  0999 V2000
    4.1715    5.4371    0.3211 C   0  0  0  1  0  0  0  0  0  0  0  0
    2.7890    5.5797   -0.1373 C   0  0  0  1  0  0  0  0  0  0  0  0
    4.5483    4.4380    0.9208 O   0  0  0  1  0  0  0  0  0  0  0  0
    2.4167    6.6384   -0.7507 C   0  0  0  1  0  0  0  0  0  0  0  0
    4.9452    6.4451    0.0398 O   0  0  0  1  0  0  0  0  0  0  0  0
    1.0949    7.3620   -0.8243 C   0  0  0  1  0  0  0  0  0  0  0  0
    0.4890    7.2378   -2.2128 C   0  0  0  1  0  0  0  0  0  0  0  0
    2.1052    4.8157    0.0368 H   0  0  0  1  0  0  0  0  0  0  0  0
    3.1718    7.0879   -1.3069 H   0  0  0  1  0  0  0  0  0  0  0  0
    5.4367    6.7004    0.8239 H   0  0  0  1  0  0  0  0  0  0  0  0
    1.2485    8.3968   -0.5997 H   0  0  0  1  0  0  0  0  0  0  0  0
    0.4222    6.9373   -0.1087 H   0  0  0  1  0  0  0  0  0  0  0  0
    1.1526    7.6707   -2.9320 H   0  0  0  1  0  0  0  0  0  0  0  0
   -0.4494    7.7512   -2.2394 H   0  0  0  1  0  0  0  0  0  0  0  0
    0.3375    6.2043   -2.4444 H   0  0  0  1  0  0  0  0  0  0  0  0
  1  2  1  0  0  0  0
  1  3  2  0  0  0  0
  1  5  1  0  0  0  0
  2  4  2  0  0  0  0
  2  8  1  0  0  0  0
  4  6  1  0  0  0  0
  4  9  1  0  0  0  0
  5 10  1  0  0  0  0
  6  7  1  0  0  0  0
  6 11  1  0  0  0  0
  6 12  1  0  0  0  0
  7 13  1  0  0  0  0
  7 14  1  0  0  0  0
  7 15  1  0  0  0  0
M  END
> <ConfClashScore>
0 

> <ConfOneFourInteractionScore>
-0.989347 

> <ConfScore>
0.593343 

> <ConfScorePBest>
0.00575474 

> <ConfTolerance>
0.0785944 

$$$$
*****
  PyMOL2.5          3D                             0

 15 14  0  0  0  0  0  0  0  0999 V2000
    4.1395    5.4521    0.4986 C   0  0  0  1  0  0  0  0  0  0  0  0
    2.8581    5.6585   -0.1693 C   0  0  0  1  0  0  0  0  0  0  0  0
    4.4605    4.3580    0.9458 O   0  0  0  1  0  0  0  0  0  0  0  0
    2.3949    6.7699   -0.7002 C   0  0  0  1  0  0  0  0  0  0  0  0
    4.8914    6.5116    0.5736 O   0  0  0  1  0  0  0  0  0  0  0  0
    0.9290    7.1062   -0.7619 C   0  0  0  1  0  0  0  0  0  0  0  0
    0.4560    7.4524   -2.1643 C   0  0  0  1  0  0  0  0  0  0  0  0
    2.2364    4.8272   -0.2332 H   0  0  0  1  0  0  0  0  0  0  0  0
    3.0752    7.4493   -1.0967 H   0  0  0  1  0  0  0  0  0  0  0  0
    5.6942    6.3714    0.0662 H   0  0  0  1  0  0  0  0  0  0  0  0
    0.7448    7.9451   -0.1236 H   0  0  0  1  0  0  0  0  0  0  0  0
    0.3710    6.2626   -0.4128 H   0  0  0  1  0  0  0  0  0  0  0  0
   -0.5635    7.7753   -2.1279 H   0  0  0  1  0  0  0  0  0  0  0  0
    0.5339    6.5880   -2.7902 H   0  0  0  1  0  0  0  0  0  0  0  0
    1.0645    8.2374   -2.5621 H   0  0  0  1  0  0  0  0  0  0  0  0
  1  2  1  0  0  0  0
  1  3  2  0  0  0  0
  1  5  1  0  0  0  0
  2  4  2  0  0  0  0
  2  8  1  0  0  0  0
  4  6  1  0  0  0  0
  4  9  1  0  0  0  0
  5 10  1  0  0  0  0
  6  7  1  0  0  0  0
  6 11  1  0  0  0  0
  6 12  1  0  0  0  0
  7 13  1  0  0  0  0
  7 14  1  0  0  0  0
  7 15  1  0  0  0  0
M  END
> <ConfClashScore>
0 

> <ConfOneFourInteractionScore>
-0.989347 

> <ConfScore>
0.597984 

> <ConfScorePBest>
0.00572626 

> <ConfTolerance>
0.0323131 

$$$$
*****
  PyMOL2.5          3D                             0

 15 14  0  0  0  0  0  0  0  0999 V2000
    4.1519    5.4353    0.4894 C   0  0  0  1  0  0  0  0  0  0  0  0
    2.8690    5.6816   -0.1633 C   0  0  0  1  0  0  0  0  0  0  0  0
    4.4696    4.3457    0.9015 O   0  0  0  1  0  0  0  0  0  0  0  0
    2.3842    6.7704   -0.7209 C   0  0  0  1  0  0  0  0  0  0  0  0
    4.8805    6.5185    0.5623 O   0  0  0  1  0  0  0  0  0  0  0  0
    0.9054    7.0987   -0.7535 C   0  0  0  1  0  0  0  0  0  0  0  0
    0.4874    7.3104   -2.1995 C   0  0  0  1  0  0  0  0  0  0  0  0
    2.2326    4.8596   -0.1922 H   0  0  0  1  0  0  0  0  0  0  0  0
    3.0487    7.4385   -1.1608 H   0  0  0  1  0  0  0  0  0  0  0  0
    5.7372    6.3560    0.1607 H   0  0  0  1  0  0  0  0  0  0  0  0
    0.7217    7.9902   -0.1911 H   0  0  0  1  0  0  0  0  0  0  0  0
    0.3472    6.2890   -0.3319 H   0  0  0  1  0  0  0  0  0  0  0  0
    1.0726    8.0965   -2.6290 H   0  0  0  1  0  0  0  0  0  0  0  0
   -0.5484    7.5765   -2.2357 H   0  0  0  1  0  0  0  0  0  0  0  0
    0.6436    6.4072   -2.7516 H   0  0  0  1  0  0  0  0  0  0  0  0
  1  2  1  0  0  0  0
  1  3  2  0  0  0  0
  1  5  1  0  0  0  0
  2  4  2  0  0  0  0
  2  8  1  0  0  0  0
  4  6  1  0  0  0  0
  4  9  1  0  0  0  0
  5 10  1  0  0  0  0
  6  7  1  0  0  0  0
  6 11  1  0  0  0  0
  6 12  1  0  0  0  0
  7 13  1  0  0  0  0
  7 14  1  0  0  0  0
  7 15  1  0  0  0  0
M  END
> <ConfClashScore>
0 

> <ConfOneFourInteractionScore>
-0.989347 

> <ConfScore>
0.597984 

> <ConfScorePBest>
0.00569778 

> <ConfTolerance>
0.0479042 

$$$$
*****
  PyMOL2.5          3D                             0

 15 14  0  0  0  0  0  0  0  0999 V2000
    4.1495    5.5013    0.5113 C   0  0  0  1  0  0  0  0  0  0  0  0
    2.8882    5.6731   -0.2029 C   0  0  0  1  0  0  0  0  0  0  0  0
    4.3502    4.4263    1.0905 O   0  0  0  1  0  0  0  0  0  0  0  0
    2.3616    6.7889   -0.6479 C   0  0  0  1  0  0  0  0  0  0  0  0
    4.9589    6.4729    0.4890 O   0  0  0  1  0  0  0  0  0  0  0  0
    0.8850    7.0541   -0.7728 C   0  0  0  1  0  0  0  0  0  0  0  0
    0.3647    7.1861   -2.1948 C   0  0  0  1  0  0  0  0  0  0  0  0
    2.3413    4.8065   -0.3803 H   0  0  0  1  0  0  0  0  0  0  0  0
    3.0126    7.5470   -0.9360 H   0  0  0  1  0  0  0  0  0  0  0  0
    5.7319    6.2342   -0.0278 H   0  0  0  1  0  0  0  0  0  0  0  0
    0.6685    7.9657   -0.2561 H   0  0  0  1  0  0  0  0  0  0  0  0
    0.3637    6.2455   -0.3043 H   0  0  0  1  0  0  0  0  0  0  0  0
   -0.6984    7.3057   -2.1765 H   0  0  0  1  0  0  0  0  0  0  0  0
    0.6149    6.3057   -2.7491 H   0  0  0  1  0  0  0  0  0  0  0  0
    0.8114    8.0399   -2.6599 H   0  0  0  1  0  0  0  0  0  0  0  0
  1  2  1  0  0  0  0
  1  3  2  0  0  0  0
  1  5  1  0  0  0  0
  2  4  2  0  0  0  0
  2  8  1  0  0  0  0
  4  6  1  0  0  0  0
  4  9  1  0  0  0  0
  5 10  1  0  0  0  0
  6  7  1  0  0  0  0
  6 11  1  0  0  0  0
  6 12  1  0  0  0  0
  7 13  1  0  0  0  0
  7 14  1  0  0  0  0
  7 15  1  0  0  0  0
M  END
> <ConfClashScore>
0 

> <ConfOneFourInteractionScore>
-0.989347 

> <ConfScore>
0.597984 

> <ConfScorePBest>
0.0056693 

> <ConfTolerance>
0.0514211 

$$$$
*****
  PyMOL2.5          3D                             0

 15 14  0  0  0  0  0  0  0  0999 V2000
    4.1430    5.4304    0.5099 C   0  0  0  1  0  0  0  0  0  0  0  0
    2.8634    5.6541   -0.1558 C   0  0  0  1  0  0  0  0  0  0  0  0
    4.4731    4.3202    0.9081 O   0  0  0  1  0  0  0  0  0  0  0  0
    2.4204    6.7774   -0.7164 C   0  0  0  1  0  0  0  0  0  0  0  0
    4.8831    6.4930    0.6384 O   0  0  0  1  0  0  0  0  0  0  0  0
    0.9529    7.1049   -0.7531 C   0  0  0  1  0  0  0  0  0  0  0  0
    0.3468    7.2254   -2.1418 C   0  0  0  1  0  0  0  0  0  0  0  0
    2.2203    4.8377   -0.1972 H   0  0  0  1  0  0  0  0  0  0  0  0
    3.1019    7.4410   -1.1369 H   0  0  0  1  0  0  0  0  0  0  0  0
    5.6210    6.4456    0.0261 H   0  0  0  1  0  0  0  0  0  0  0  0
    0.8102    8.0376   -0.2485 H   0  0  0  1  0  0  0  0  0  0  0  0
    0.4292    6.3321   -0.2302 H   0  0  0  1  0  0  0  0  0  0  0  0
   -0.6733    7.5380   -2.0603 H   0  0  0  1  0  0  0  0  0  0  0  0
    0.3905    6.2759   -2.6333 H   0  0  0  1  0  0  0  0  0  0  0  0
    0.8965    7.9470   -2.7092 H   0  0  0  1  0  0  0  0  0  0  0  0
  1  2  1  0  0  0  0
  1  3  2  0  0  0  0
  1  5  1  0  0  0  0
  2  4  2  0  0  0  0
  2  8  1  0  0  0  0
  4  6  1  0  0  0  0
  4  9  1  0  0  0  0
  5 10  1  0  0  0  0
  6  7  1  0  0  0  0
  6 11  1  0  0  0  0
  6 12  1  0  0  0  0
  7 13  1  0  0  0  0
  7 14  1  0  0  0  0
  7 15  1  0  0  0  0
M  END
> <ConfClashScore>
0 

> <ConfOneFourInteractionScore>
-0.989347 

> <ConfScore>
0.597984 

> <ConfScorePBest>
0.00564082 

> <ConfTolerance>
0.0343566 

$$$$
*****
  PyMOL2.5          3D                             0

 15 14  0  0  0  0  0  0  0  0999 V2000
    4.1227    5.4662    0.4624 C   0  0  0  1  0  0  0  0  0  0  0  0
    2.7946    5.5834   -0.1410 C   0  0  0  1  0  0  0  0  0  0  0  0
    4.5560    4.3900    0.8549 O   0  0  0  1  0  0  0  0  0  0  0  0
    2.4197    6.7042   -0.7048 C   0  0  0  1  0  0  0  0  0  0  0  0
    4.7884    6.5887    0.5421 O   0  0  0  1  0  0  0  0  0  0  0  0
    1.0198    7.2502   -0.7956 C   0  0  0  1  0  0  0  0  0  0  0  0
    0.3934    7.2105   -2.1799 C   0  0  0  1  0  0  0  0  0  0  0  0
    2.1446    4.7717   -0.1219 H   0  0  0  1  0  0  0  0  0  0  0  0
    3.1706    7.2797   -1.1368 H   0  0  0  1  0  0  0  0  0  0  0  0
    5.6628    6.4703    0.1638 H   0  0  0  1  0  0  0  0  0  0  0  0
    1.0416    8.2699   -0.4722 H   0  0  0  1  0  0  0  0  0  0  0  0
    0.3996    6.6796   -0.1362 H   0  0  0  1  0  0  0  0  0  0  0  0
    1.0961    7.5738   -2.9004 H   0  0  0  1  0  0  0  0  0  0  0  0
   -0.4814    7.8265   -2.1931 H   0  0  0  1  0  0  0  0  0  0  0  0
    0.1247    6.2032   -2.4208 H   0  0  0  1  0  0  0  0  0  0  0  0
  1  2  1  0  0  0  0
  1  3  2  0  0  0  0
  1  5  1  0  0  0  0
  2  4  2  0  0  0  0
  2  8  1  0  0  0  0
  4  6  1  0  0  0  0
  4  9  1  0  0  0  0
  5 10  1  0  0  0  0
  6  7  1  0  0  0  0
  6 11  1  0  0  0  0
  6 12  1  0  0  0  0
  7 13  1  0  0  0  0
  7 14  1  0  0  0  0
  7 15  1  0  0  0  0
M  END
> <ConfClashScore>
0 

> <ConfOneFourInteractionScore>
-0.989347 

> <ConfScore>
0.597984 

> <ConfScorePBest>
0.00561234 

> <ConfTolerance>
0.0739097 

$$$$
*****
  PyMOL2.5          3D                             0

 15 14  0  0  0  0  0  0  0  0999 V2000
    4.2468    5.8180    0.3513 C   0  0  0  1  0  0  0  0  0  0  0  0
    3.0724    6.0038   -0.4962 C   0  0  0  1  0  0  0  0  0  0  0  0
    4.4312    6.4201    1.3911 O   0  0  0  1  0  0  0  0  0  0  0  0
    2.0642    6.8363   -0.3917 C   0  0  0  1  0  0  0  0  0  0  0  0
    5.1018    4.9286   -0.1149 O   0  0  0  1  0  0  0  0  0  0  0  0
    0.6732    6.5590   -0.8664 C   0  0  0  1  0  0  0  0  0  0  0  0
   -0.4273    6.8314    0.1460 C   0  0  0  1  0  0  0  0  0  0  0  0
    3.0278    5.3705   -1.3200 H   0  0  0  1  0  0  0  0  0  0  0  0
    2.2456    7.7580    0.0547 H   0  0  0  1  0  0  0  0  0  0  0  0
    5.8162    4.8100    0.5153 H   0  0  0  1  0  0  0  0  0  0  0  0
    0.6187    5.5269   -1.1436 H   0  0  0  1  0  0  0  0  0  0  0  0
    0.4898    7.1697   -1.7257 H   0  0  0  1  0  0  0  0  0  0  0  0
   -0.3091    7.8170    0.5455 H   0  0  0  1  0  0  0  0  0  0  0  0
   -0.3670    6.1157    0.9392 H   0  0  0  1  0  0  0  0  0  0  0  0
   -1.3804    6.7532   -0.3339 H   0  0  0  1  0  0  0  0  0  0  0  0
  1  2  1  0  0  0  0
  1  3  2  0  0  0  0
  1  5  1  0  0  0  0
  2  4  2  0  0  0  0
  2  8  1  0  0  0  0
  4  6  1  0  0  0  0
  4  9  1  0  0  0  0
  5 10  1  0  0  0  0
  6  7  1  0  0  0  0
  6 11  1  0  0  0  0
  6 12  1  0  0  0  0
  7 13  1  0  0  0  0
  7 14  1  0  0  0  0
  7 15  1  0  0  0  0
M  END
> <ConfClashScore>
0 

> <ConfOneFourInteractionScore>
-0.989347 

> <ConfScore>
0.605402 

> <ConfScorePBest>
0.00558386 

> <ConfTolerance>
0.0618073 

$$$$
*****
  PyMOL2.5          3D                             0

 15 14  0  0  0  0  0  0  0  0999 V2000
    4.2327    5.8045    0.2930 C   0  0  0  1  0  0  0  0  0  0  0  0
    3.0210    5.8614   -0.5158 C   0  0  0  1  0  0  0  0  0  0  0  0
    4.4031    6.6586    1.1721 O   0  0  0  1  0  0  0  0  0  0  0  0
    2.1091    6.7761   -0.4424 C   0  0  0  1  0  0  0  0  0  0  0  0
    5.0884    4.8770    0.0765 O   0  0  0  1  0  0  0  0  0  0  0  0
    0.6313    6.6790   -0.7044 C   0  0  0  1  0  0  0  0  0  0  0  0
   -0.2634    7.1898    0.4132 C   0  0  0  1  0  0  0  0  0  0  0  0
    2.8775    5.1016   -1.2113 H   0  0  0  1  0  0  0  0  0  0  0  0
    2.4481    7.7180   -0.1606 H   0  0  0  1  0  0  0  0  0  0  0  0
    5.8680    5.0280    0.6159 H   0  0  0  1  0  0  0  0  0  0  0  0
    0.3930    5.6497   -0.8737 H   0  0  0  1  0  0  0  0  0  0  0  0
    0.4144    7.2455   -1.5859 H   0  0  0  1  0  0  0  0  0  0  0  0
    0.0145    8.1924    0.6632 H   0  0  0  1  0  0  0  0  0  0  0  0
   -0.1515    6.5638    1.2737 H   0  0  0  1  0  0  0  0  0  0  0  0
   -1.2831    7.1728    0.0894 H   0  0  0  1  0  0  0  0  0  0  0  0
  1  2  1  0  0  0  0
  1  3  2  0  0  0  0
  1  5  1  0  0  0  0
  2  4  2  0  0  0  0
  2  8  1  0  0  0  0
  4  6  1  0  0  0  0
  4  9  1  0  0  0  0
  5 10  1  0  0  0  0
  6  7  1  0  0  0  0
  6 11  1  0  0  0  0
  6 12  1  0  0  0  0
  7 13  1  0  0  0  0
  7 14  1  0  0  0  0
  7 15  1  0  0  0  0
M  END
> <ConfClashScore>
0 

> <ConfOneFourInteractionScore>
-0.989347 

> <ConfScore>
0.605402 

> <ConfScorePBest>
0.00555537 

> <ConfTolerance>
0.0551044 

$$$$
*****
  PyMOL2.5          3D                             0

 15 14  0  0  0  0  0  0  0  0999 V2000
    4.2014    5.2962    0.4507 C   0  0  0  1  0  0  0  0  0  0  0  0
    2.8746    5.5426   -0.1157 C   0  0  0  1  0  0  0  0  0  0  0  0
    4.5028    4.2812    1.0479 O   0  0  0  1  0  0  0  0  0  0  0  0
    2.6184    6.6656   -0.7386 C   0  0  0  1  0  0  0  0  0  0  0  0
    5.0532    6.2837    0.2548 O   0  0  0  1  0  0  0  0  0  0  0  0
    1.2939    7.3764   -0.8192 C   0  0  0  1  0  0  0  0  0  0  0  0
    1.2860    8.7061   -0.0828 C   0  0  0  1  0  0  0  0  0  0  0  0
    2.1309    4.8215   -0.0230 H   0  0  0  1  0  0  0  0  0  0  0  0
    3.4165    7.1151   -1.2310 H   0  0  0  1  0  0  0  0  0  0  0  0
    4.5874    7.1220    0.2973 H   0  0  0  1  0  0  0  0  0  0  0  0
    0.5425    6.7459   -0.3918 H   0  0  0  1  0  0  0  0  0  0  0  0
    1.0660    7.5561   -1.8491 H   0  0  0  1  0  0  0  0  0  0  0  0
    0.3678    9.2185   -0.2807 H   0  0  0  1  0  0  0  0  0  0  0  0
    2.1074    9.3042   -0.4184 H   0  0  0  1  0  0  0  0  0  0  0  0
    1.3774    8.5316    0.9689 H   0  0  0  1  0  0  0  0  0  0  0  0
  1  2  1  0  0  0  0
  1  3  2  0  0  0  0
  1  5  1  0  0  0  0
  2  4  2  0  0  0  0
  2  8  1  0  0  0  0
  4  6  1  0  0  0  0
  4  9  1  0  0  0  0
  5 10  1  0  0  0  0
  6  7  1  0  0  0  0
  6 11  1  0  0  0  0
  6 12  1  0  0  0  0
  7 13  1  0  0  0  0
  7 14  1  0  0  0  0
  7 15  1  0  0  0  0
M  END
> <ConfClashScore>
0 

> <ConfOneFourInteractionScore>
-0.989347 

> <ConfScore>
0.61075 

> <ConfScorePBest>
0.00552689 

> <ConfTolerance>
0.0629431 

$$$$
*****
  PyMOL2.5          3D                             0

 15 14  0  0  0  0  0  0  0  0999 V2000
    4.2199    5.2722    0.4915 C   0  0  0  1  0  0  0  0  0  0  0  0
    2.9448    5.6031   -0.1372 C   0  0  0  1  0  0  0  0  0  0  0  0
    4.3987    4.2367    1.0864 O   0  0  0  1  0  0  0  0  0  0  0  0
    2.6082    6.7337   -0.7544 C   0  0  0  1  0  0  0  0  0  0  0  0
    5.1076    6.2179    0.3266 O   0  0  0  1  0  0  0  0  0  0  0  0
    1.1868    7.2291   -0.7556 C   0  0  0  1  0  0  0  0  0  0  0  0
    1.0282    8.5846   -0.0863 C   0  0  0  1  0  0  0  0  0  0  0  0
    2.2110    4.8672   -0.0982 H   0  0  0  1  0  0  0  0  0  0  0  0
    3.3411    7.2849   -1.2449 H   0  0  0  1  0  0  0  0  0  0  0  0
    4.6611    7.0595    0.2089 H   0  0  0  1  0  0  0  0  0  0  0  0
    0.5782    6.5192   -0.2354 H   0  0  0  1  0  0  0  0  0  0  0  0
    0.8548    7.3091   -1.7696 H   0  0  0  1  0  0  0  0  0  0  0  0
    1.7297    9.2747   -0.5065 H   0  0  0  1  0  0  0  0  0  0  0  0
    1.2094    8.4870    0.9637 H   0  0  0  1  0  0  0  0  0  0  0  0
    0.0337    8.9463   -0.2450 H   0  0  0  1  0  0  0  0  0  0  0  0
  1  2  1  0  0  0  0
  1  3  2  0  0  0  0
  1  5  1  0  0  0  0
  2  4  2  0  0  0  0
  2  8  1  0  0  0  0
  4  6  1  0  0  0  0
  4  9  1  0  0  0  0
  5 10  1  0  0  0  0
  6  7  1  0  0  0  0
  6 11  1  0  0  0  0
  6 12  1  0  0  0  0
  7 13  1  0  0  0  0
  7 14  1  0  0  0  0
  7 15  1  0  0  0  0
M  END
> <ConfClashScore>
0 

> <ConfOneFourInteractionScore>
-0.989347 

> <ConfScore>
0.61075 

> <ConfScorePBest>
0.00549841 

> <ConfTolerance>
0.0570098 

$$$$
*****
  PyMOL2.5          3D                             0

 15 14  0  0  0  0  0  0  0  0999 V2000
    4.2164    5.3017    0.4511 C   0  0  0  1  0  0  0  0  0  0  0  0
    2.8973    5.5741   -0.1082 C   0  0  0  1  0  0  0  0  0  0  0  0
    4.4776    4.2309    0.9852 O   0  0  0  1  0  0  0  0  0  0  0  0
    2.6182    6.6770   -0.7611 C   0  0  0  1  0  0  0  0  0  0  0  0
    5.0698    6.2770    0.3333 O   0  0  0  1  0  0  0  0  0  0  0  0
    1.2658    7.3371   -0.7970 C   0  0  0  1  0  0  0  0  0  0  0  0
    0.7856    7.6343   -2.2082 C   0  0  0  1  0  0  0  0  0  0  0  0
    2.1470    4.8647    0.0158 H   0  0  0  1  0  0  0  0  0  0  0  0
    3.3886    7.1291   -1.2936 H   0  0  0  1  0  0  0  0  0  0  0  0
    4.5986    7.1126    0.2976 H   0  0  0  1  0  0  0  0  0  0  0  0
    1.3219    8.2582   -0.2554 H   0  0  0  1  0  0  0  0  0  0  0  0
    0.5574    6.6882   -0.3258 H   0  0  0  1  0  0  0  0  0  0  0  0
    1.4381    8.3491   -2.6644 H   0  0  0  1  0  0  0  0  0  0  0  0
   -0.2074    8.0311   -2.1707 H   0  0  0  1  0  0  0  0  0  0  0  0
    0.7880    6.7318   -2.7830 H   0  0  0  1  0  0  0  0  0  0  0  0
  1  2  1  0  0  0  0
  1  3  2  0  0  0  0
  1  5  1  0  0  0  0
  2  4  2  0  0  0  0
  2  8  1  0  0  0  0
  4  6  1  0  0  0  0
  4  9  1  0  0  0  0
  5 10  1  0  0  0  0
  6  7  1  0  0  0  0
  6 11  1  0  0  0  0
  6 12  1  0  0  0  0
  7 13  1  0  0  0  0
  7 14  1  0  0  0  0
  7 15  1  0  0  0  0
M  END
> <ConfClashScore>
0 

> <ConfOneFourInteractionScore>
-0.989347 

> <ConfScore>
0.614216 

> <ConfScorePBest>
0.00546993 

> <ConfTolerance>
0.0514423 

$$$$
*****
  PyMOL2.5          3D                             0

 15 14  0  0  0  0  0  0  0  0999 V2000
    4.1902    5.3449    0.5874 C   0  0  0  1  0  0  0  0  0  0  0  0
    2.9673    5.6436   -0.1525 C   0  0  0  1  0  0  0  0  0  0  0  0
    4.3117    4.2716    1.1449 O   0  0  0  1  0  0  0  0  0  0  0  0
    2.5235    6.7719   -0.6532 C   0  0  0  1  0  0  0  0  0  0  0  0
    5.0425    6.2993    0.5639 O   0  0  0  1  0  0  0  0  0  0  0  0
    1.0702    7.1339   -0.8043 C   0  0  0  1  0  0  0  0  0  0  0  0
    0.6091    8.3319    0.0097 C   0  0  0  1  0  0  0  0  0  0  0  0
    2.3443    4.8256   -0.3085 H   0  0  0  1  0  0  0  0  0  0  0  0
    3.2283    7.4683   -0.9692 H   0  0  0  1  0  0  0  0  0  0  0  0
    5.0012    6.7452   -0.2853 H   0  0  0  1  0  0  0  0  0  0  0  0
    0.4866    6.2880   -0.5063 H   0  0  0  1  0  0  0  0  0  0  0  0
    0.8888    7.3470   -1.8371 H   0  0  0  1  0  0  0  0  0  0  0  0
    1.1386    9.2054   -0.3090 H   0  0  0  1  0  0  0  0  0  0  0  0
    0.8049    8.1549    1.0466 H   0  0  0  1  0  0  0  0  0  0  0  0
   -0.4408    8.4787   -0.1356 H   0  0  0  1  0  0  0  0  0  0  0  0
  1  2  1  0  0  0  0
  1  3  2  0  0  0  0
  1  5  1  0  0  0  0
  2  4  2  0  0  0  0
  2  8  1  0  0  0  0
  4  6  1  0  0  0  0
  4  9  1  0  0  0  0
  5 10  1  0  0  0  0
  6  7  1  0  0  0  0
  6 11  1  0  0  0  0
  6 12  1  0  0  0  0
  7 13  1  0  0  0  0
  7 14  1  0  0  0  0
  7 15  1  0  0  0  0
M  END
> <ConfClashScore>
0 

> <ConfOneFourInteractionScore>
-0.989347 

> <ConfScore>
0.61975 

> <ConfScorePBest>
0.00544145 

> <ConfTolerance>
0.0511342 

$$$$
*****
  PyMOL2.5          3D                             0

 15 14  0  0  0  0  0  0  0  0999 V2000
    4.1586    5.3394    0.5458 C   0  0  0  1  0  0  0  0  0  0  0  0
    2.8927    5.5681   -0.1414 C   0  0  0  1  0  0  0  0  0  0  0  0
    4.4421    4.2755    1.0823 O   0  0  0  1  0  0  0  0  0  0  0  0
    2.5762    6.7222   -0.6785 C   0  0  0  1  0  0  0  0  0  0  0  0
    5.0075    6.3433    0.5696 O   0  0  0  1  0  0  0  0  0  0  0  0
    1.1748    7.2568   -0.8060 C   0  0  0  1  0  0  0  0  0  0  0  0
    0.7620    7.3440   -2.2663 C   0  0  0  1  0  0  0  0  0  0  0  0
    2.2130    4.7839   -0.2084 H   0  0  0  1  0  0  0  0  0  0  0  0
    3.3512    7.3118   -1.0435 H   0  0  0  1  0  0  0  0  0  0  0  0
    4.8632    6.9032   -0.1967 H   0  0  0  1  0  0  0  0  0  0  0  0
    1.1306    8.2329   -0.3701 H   0  0  0  1  0  0  0  0  0  0  0  0
    0.5021    6.6043   -0.2897 H   0  0  0  1  0  0  0  0  0  0  0  0
   -0.2466    7.6950   -2.3320 H   0  0  0  1  0  0  0  0  0  0  0  0
    0.8321    6.3751   -2.7150 H   0  0  0  1  0  0  0  0  0  0  0  0
    1.4099    8.0231   -2.7799 H   0  0  0  1  0  0  0  0  0  0  0  0
  1  2  1  0  0  0  0
  1  3  2  0  0  0  0
  1  5  1  0  0  0  0
  2  4  2  0  0  0  0
  2  8  1  0  0  0  0
  4  6  1  0  0  0  0
  4  9  1  0  0  0  0
  5 10  1  0  0  0  0
  6  7  1  0  0  0  0
  6 11  1  0  0  0  0
  6 12  1  0  0  0  0
  7 13  1  0  0  0  0
  7 14  1  0  0  0  0
  7 15  1  0  0  0  0
M  END
> <ConfClashScore>
0 

> <ConfOneFourInteractionScore>
-0.989347 

> <ConfScore>
0.623216 

> <ConfScorePBest>
0.00541297 

> <ConfTolerance>
0.0678994 

$$$$
*****
  PyMOL2.5          3D                             0

 15 14  0  0  0  0  0  0  0  0999 V2000
    4.2226    5.3283    0.5182 C   0  0  0  1  0  0  0  0  0  0  0  0
    2.9847    5.6578   -0.1319 C   0  0  0  1  0  0  0  0  0  0  0  0
    4.3107    4.2253    1.0874 O   0  0  0  1  0  0  0  0  0  0  0  0
    2.5233    6.7247   -0.6996 C   0  0  0  1  0  0  0  0  0  0  0  0
    5.1459    6.1910    0.4662 O   0  0  0  1  0  0  0  0  0  0  0  0
    1.1057    7.2148   -0.8100 C   0  0  0  1  0  0  0  0  0  0  0  0
    0.8407    8.5839   -0.2053 C   0  0  0  1  0  0  0  0  0  0  0  0
    2.3120    4.8649   -0.1501 H   0  0  0  1  0  0  0  0  0  0  0  0
    3.2386    7.3337   -1.1458 H   0  0  0  1  0  0  0  0  0  0  0  0
    4.8357    6.9639   -0.0112 H   0  0  0  1  0  0  0  0  0  0  0  0
    0.4726    6.5076   -0.3161 H   0  0  0  1  0  0  0  0  0  0  0  0
    0.8513    7.2578   -1.8485 H   0  0  0  1  0  0  0  0  0  0  0  0
    1.5090    9.3000   -0.6359 H   0  0  0  1  0  0  0  0  0  0  0  0
    0.9962    8.5424    0.8526 H   0  0  0  1  0  0  0  0  0  0  0  0
   -0.1696    8.8730   -0.4067 H   0  0  0  1  0  0  0  0  0  0  0  0
  1  2  1  0  0  0  0
  1  3  2  0  0  0  0
  1  5  1  0  0  0  0
  2  4  2  0  0  0  0
  2  8  1  0  0  0  0
  4  6  1  0  0  0  0
  4  9  1  0  0  0  0
  5 10  1  0  0  0  0
  6  7  1  0  0  0  0
  6 11  1  0  0  0  0
  6 12  1  0  0  0  0
  7 13  1  0  0  0  0
  7 14  1  0  0  0  0
  7 15  1  0  0  0  0
M  END
> <ConfClashScore>
0 

> <ConfOneFourInteractionScore>
-0.989347 

> <ConfScore>
0.631167 

> <ConfScorePBest>
0.00538449 

> <ConfTolerance>
0.0699823 

$$$$
*****
  PyMOL2.5          3D                             0

 15 14  0  0  0  0  0  0  0  0999 V2000
    4.1816    5.4373    0.3344 C   0  0  0  1  0  0  0  0  0  0  0  0
    2.8266    5.6596   -0.1555 C   0  0  0  1  0  0  0  0  0  0  0  0
    4.5435    4.3687    0.7870 O   0  0  0  1  0  0  0  0  0  0  0  0
    2.4148    6.7261   -0.8400 C   0  0  0  1  0  0  0  0  0  0  0  0
    4.9213    6.5022    0.2234 O   0  0  0  1  0  0  0  0  0  0  0  0
    0.9819    7.1723   -0.6855 C   0  0  0  1  0  0  0  0  0  0  0  0
    0.9105    8.5293   -0.0046 C   0  0  0  1  0  0  0  0  0  0  0  0
    2.1211    4.9228    0.0466 H   0  0  0  1  0  0  0  0  0  0  0  0
    3.0667    7.2396   -1.4668 H   0  0  0  1  0  0  0  0  0  0  0  0
    5.6217    6.4757    0.8795 H   0  0  0  1  0  0  0  0  0  0  0  0
    0.4528    6.4546   -0.0939 H   0  0  0  1  0  0  0  0  0  0  0  0
    0.5297    7.2409   -1.6528 H   0  0  0  1  0  0  0  0  0  0  0  0
    1.6146    9.1945   -0.4591 H   0  0  0  1  0  0  0  0  0  0  0  0
    1.1429    8.4196    1.0341 H   0  0  0  1  0  0  0  0  0  0  0  0
   -0.0765    8.9292   -0.1094 H   0  0  0  1  0  0  0  0  0  0  0  0
  1  2  1  0  0  0  0
  1  3  2  0  0  0  0
  1  5  1  0  0  0  0
  2  4  2  0  0  0  0
  2  8  1  0  0  0  0
  4  6  1  0  0  0  0
  4  9  1  0  0  0  0
  5 10  1  0  0  0  0
  6  7  1  0  0  0  0
  6 11  1  0  0  0  0
  6 12  1  0  0  0  0
  7 13  1  0  0  0  0
  7 14  1  0  0  0  0
  7 15  1  0  0  0  0
M  END
> <ConfClashScore>
0 

> <ConfOneFourInteractionScore>
-0.989347 

> <ConfScore>
0.643586 

> <ConfScorePBest>
0.00535601 

> <ConfTolerance>
0.0855116 

$$$$
*****
  PyMOL2.5          3D                             0

 15 14  0  0  0  0  0  0  0  0999 V2000
    4.1865    5.4468    0.3376 C   0  0  0  1  0  0  0  0  0  0  0  0
    2.8347    5.6555   -0.1723 C   0  0  0  1  0  0  0  0  0  0  0  0
    4.4989    4.4177    0.9236 O   0  0  0  1  0  0  0  0  0  0  0  0
    2.3620    6.7119   -0.7848 C   0  0  0  1  0  0  0  0  0  0  0  0
    5.0094    6.4307    0.1177 O   0  0  0  1  0  0  0  0  0  0  0  0
    0.9454    7.2202   -0.7539 C   0  0  0  1  0  0  0  0  0  0  0  0
    0.1953    7.2917   -2.0740 C   0  0  0  1  0  0  0  0  0  0  0  0
    2.1668    4.8707   -0.0323 H   0  0  0  1  0  0  0  0  0  0  0  0
    3.0386    7.2592   -1.3543 H   0  0  0  1  0  0  0  0  0  0  0  0
    5.6369    6.4915    0.8417 H   0  0  0  1  0  0  0  0  0  0  0  0
    0.9688    8.2088   -0.3451 H   0  0  0  1  0  0  0  0  0  0  0  0
    0.3889    6.5779   -0.1038 H   0  0  0  1  0  0  0  0  0  0  0  0
   -0.8403    7.4845   -1.8864 H   0  0  0  1  0  0  0  0  0  0  0  0
    0.2964    6.3610   -2.5922 H   0  0  0  1  0  0  0  0  0  0  0  0
    0.6019    8.0798   -2.6728 H   0  0  0  1  0  0  0  0  0  0  0  0
  1  2  1  0  0  0  0
  1  3  2  0  0  0  0
  1  5  1  0  0  0  0
  2  4  2  0  0  0  0
  2  8  1  0  0  0  0
  4  6  1  0  0  0  0
  4  9  1  0  0  0  0
  5 10  1  0  0  0  0
  6  7  1  0  0  0  0
  6 11  1  0  0  0  0
  6 12  1  0  0  0  0
  7 13  1  0  0  0  0
  7 14  1  0  0  0  0
  7 15  1  0  0  0  0
M  END
> <ConfClashScore>
0 

> <ConfOneFourInteractionScore>
-0.989347 

> <ConfScore>
0.647052 

> <ConfScorePBest>
0.00532753 

> <ConfTolerance>
0.051527 

$$$$
*****
  PyMOL2.5          3D                             0

 15 14  0  0  0  0  0  0  0  0999 V2000
    4.2963    5.9131    0.3955 C   0  0  0  1  0  0  0  0  0  0  0  0
    3.2291    6.1277   -0.5751 C   0  0  0  1  0  0  0  0  0  0  0  0
    4.2219    6.3498    1.5374 O   0  0  0  1  0  0  0  0  0  0  0  0
    2.1292    6.7814   -0.2862 C   0  0  0  1  0  0  0  0  0  0  0  0
    5.3105    5.2314   -0.0520 O   0  0  0  1  0  0  0  0  0  0  0  0
    0.7850    6.5200   -0.9082 C   0  0  0  1  0  0  0  0  0  0  0  0
    0.9211    5.6253   -2.1295 C   0  0  0  1  0  0  0  0  0  0  0  0
    3.3450    5.7467   -1.5358 H   0  0  0  1  0  0  0  0  0  0  0  0
    2.1913    7.5367    0.4259 H   0  0  0  1  0  0  0  0  0  0  0  0
    5.1707    4.2976    0.1216 H   0  0  0  1  0  0  0  0  0  0  0  0
    0.3476    7.4511   -1.2024 H   0  0  0  1  0  0  0  0  0  0  0  0
    0.1536    6.0398   -0.1901 H   0  0  0  1  0  0  0  0  0  0  0  0
    1.3500    4.6887   -1.8401 H   0  0  0  1  0  0  0  0  0  0  0  0
    1.5540    6.0997   -2.8501 H   0  0  0  1  0  0  0  0  0  0  0  0
   -0.0450    5.4578   -2.5579 H   0  0  0  1  0  0  0  0  0  0  0  0
  1  2  1  0  0  0  0
  1  3  2  0  0  0  0
  1  5  1  0  0  0  0
  2  4  2  0  0  0  0
  2  8  1  0  0  0  0
  4  6  1  0  0  0  0
  4  9  1  0  0  0  0
  5 10  1  0  0  0  0
  6  7  1  0  0  0  0
  6 11  1  0  0  0  0
  6 12  1  0  0  0  0
  7 13  1  0  0  0  0
  7 14  1  0  0  0  0
  7 15  1  0  0  0  0
M  END
> <ConfClashScore>
0 

> <ConfOneFourInteractionScore>
-0.971698 

> <ConfScore>
0.65035 

> <ConfScorePBest>
0.00529905 

> <ConfTolerance>
0.0498061 

$$$$
*****
  PyMOL2.5          3D                             0

 15 14  0  0  0  0  0  0  0  0999 V2000
    4.2769    5.4919    0.1955 C   0  0  0  1  0  0  0  0  0  0  0  0
    2.9974    6.1876    0.0975 C   0  0  0  1  0  0  0  0  0  0  0  0
    4.5983    4.6247   -0.6074 O   0  0  0  1  0  0  0  0  0  0  0  0
    2.1380    6.2199   -0.8985 C   0  0  0  1  0  0  0  0  0  0  0  0
    5.0268    5.8686    1.1902 O   0  0  0  1  0  0  0  0  0  0  0  0
    1.2537    7.3928   -1.1803 C   0  0  0  1  0  0  0  0  0  0  0  0
    1.3596    8.4848   -0.1283 C   0  0  0  1  0  0  0  0  0  0  0  0
    2.7255    6.7379    0.9370 H   0  0  0  1  0  0  0  0  0  0  0  0
    2.0703    5.3890   -1.5202 H   0  0  0  1  0  0  0  0  0  0  0  0
    5.5922    6.5918    0.9094 H   0  0  0  1  0  0  0  0  0  0  0  0
    0.2396    7.0535   -1.2181 H   0  0  0  1  0  0  0  0  0  0  0  0
    1.5276    7.8058   -2.1286 H   0  0  0  1  0  0  0  0  0  0  0  0
    0.9716    8.1240    0.8013 H   0  0  0  1  0  0  0  0  0  0  0  0
    0.7960    9.3383   -0.4425 H   0  0  0  1  0  0  0  0  0  0  0  0
    2.3858    8.7608   -0.0031 H   0  0  0  1  0  0  0  0  0  0  0  0
  1  2  1  0  0  0  0
  1  3  2  0  0  0  0
  1  5  1  0  0  0  0
  2  4  2  0  0  0  0
  2  8  1  0  0  0  0
  4  6  1  0  0  0  0
  4  9  1  0  0  0  0
  5 10  1  0  0  0  0
  6  7  1  0  0  0  0
  6 11  1  0  0  0  0
  6 12  1  0  0  0  0
  7 13  1  0  0  0  0
  7 14  1  0  0  0  0
  7 15  1  0  0  0  0
M  END
> <ConfClashScore>
0 

> <ConfOneFourInteractionScore>
-0.971698 

> <ConfScore>
0.65035 

> <ConfScorePBest>
0.00527057 

> <ConfTolerance>
0.0615157 

$$$$
*****
  PyMOL2.5          3D                             0

 15 14  0  0  0  0  0  0  0  0999 V2000
    4.2847    5.8158    0.4720 C   0  0  0  1  0  0  0  0  0  0  0  0
    3.2599    6.2040   -0.4922 C   0  0  0  1  0  0  0  0  0  0  0  0
    3.9976    5.8578    1.6820 O   0  0  0  1  0  0  0  0  0  0  0  0
    2.0767    6.7084   -0.2468 C   0  0  0  1  0  0  0  0  0  0  0  0
    5.4055    5.4598    0.0066 O   0  0  0  1  0  0  0  0  0  0  0  0
    0.8280    6.5343   -1.0692 C   0  0  0  1  0  0  0  0  0  0  0  0
    1.0675    5.7697   -2.3609 C   0  0  0  1  0  0  0  0  0  0  0  0
    3.4981    6.0630   -1.4947 H   0  0  0  1  0  0  0  0  0  0  0  0
    1.9902    7.2927    0.6093 H   0  0  0  1  0  0  0  0  0  0  0  0
    5.3385    4.5685   -0.3438 H   0  0  0  1  0  0  0  0  0  0  0  0
    0.4430    7.5025   -1.3130 H   0  0  0  1  0  0  0  0  0  0  0  0
    0.1076    6.0000   -0.4858 H   0  0  0  1  0  0  0  0  0  0  0  0
    1.7704    6.3028   -2.9664 H   0  0  0  1  0  0  0  0  0  0  0  0
    0.1441    5.6688   -2.8918 H   0  0  0  1  0  0  0  0  0  0  0  0
    1.4568    4.7993   -2.1336 H   0  0  0  1  0  0  0  0  0  0  0  0
  1  2  1  0  0  0  0
  1  3  2  0  0  0  0
  1  5  1  0  0  0  0
  2  4  2  0  0  0  0
  2  8  1  0  0  0  0
  4  6  1  0  0  0  0
  4  9  1  0  0  0  0
  5 10  1  0  0  0  0
  6  7  1  0  0  0  0
  6 11  1  0  0  0  0
  6 12  1  0  0  0  0
  7 13  1  0  0  0  0
  7 14  1  0  0  0  0
  7 15  1  0  0  0  0
M  END
> <ConfClashScore>
0 

> <ConfOneFourInteractionScore>
-0.971698 

> <ConfScore>
0.65035 

> <ConfScorePBest>
0.00524209 

> <ConfTolerance>
0.0321355 

$$$$
*****
  PyMOL2.5          3D                             0

 15 14  0  0  0  0  0  0  0  0999 V2000
    4.2581    5.8001    0.5012 C   0  0  0  1  0  0  0  0  0  0  0  0
    3.2403    6.2346   -0.4515 C   0  0  0  1  0  0  0  0  0  0  0  0
    4.0722    5.7244    1.7001 O   0  0  0  1  0  0  0  0  0  0  0  0
    2.0375    6.7145   -0.2577 C   0  0  0  1  0  0  0  0  0  0  0  0
    5.4118    5.4928   -0.0588 O   0  0  0  1  0  0  0  0  0  0  0  0
    0.8431    6.5609   -1.1610 C   0  0  0  1  0  0  0  0  0  0  0  0
    1.1451    6.0436   -2.5580 C   0  0  0  1  0  0  0  0  0  0  0  0
    3.5169    6.1486   -1.4504 H   0  0  0  1  0  0  0  0  0  0  0  0
    1.8915    7.2610    0.6151 H   0  0  0  1  0  0  0  0  0  0  0  0
    5.4078    4.5673   -0.3138 H   0  0  0  1  0  0  0  0  0  0  0  0
    0.3769    7.5192   -1.2575 H   0  0  0  1  0  0  0  0  0  0  0  0
    0.1632    5.8781   -0.6959 H   0  0  0  1  0  0  0  0  0  0  0  0
    1.6503    6.8022   -3.1183 H   0  0  0  1  0  0  0  0  0  0  0  0
    0.2294    5.7880   -3.0490 H   0  0  0  1  0  0  0  0  0  0  0  0
    1.7680    5.1763   -2.4899 H   0  0  0  1  0  0  0  0  0  0  0  0
  1  2  1  0  0  0  0
  1  3  2  0  0  0  0
  1  5  1  0  0  0  0
  2  4  2  0  0  0  0
  2  8  1  0  0  0  0
  4  6  1  0  0  0  0
  4  9  1  0  0  0  0
  5 10  1  0  0  0  0
  6  7  1  0  0  0  0
  6 11  1  0  0  0  0
  6 12  1  0  0  0  0
  7 13  1  0  0  0  0
  7 14  1  0  0  0  0
  7 15  1  0  0  0  0
M  END
> <ConfClashScore>
0 

> <ConfOneFourInteractionScore>
-0.971698 

> <ConfScore>
0.65035 

> <ConfScorePBest>
0.00521361 

> <ConfTolerance>
0.0635291 

$$$$
*****
  PyMOL2.5          3D                             0

 15 14  0  0  0  0  0  0  0  0999 V2000
    4.1872    5.6879    0.4608 C   0  0  0  1  0  0  0  0  0  0  0  0
    3.1191    5.9635   -0.4924 C   0  0  0  1  0  0  0  0  0  0  0  0
    4.1795    6.2741    1.5507 O   0  0  0  1  0  0  0  0  0  0  0  0
    2.1016    6.7729   -0.2894 C   0  0  0  1  0  0  0  0  0  0  0  0
    5.1043    4.8501    0.1503 O   0  0  0  1  0  0  0  0  0  0  0  0
    0.7475    6.5686   -0.9146 C   0  0  0  1  0  0  0  0  0  0  0  0
    0.6642    5.3047   -1.7549 C   0  0  0  1  0  0  0  0  0  0  0  0
    3.1652    5.4790   -1.4114 H   0  0  0  1  0  0  0  0  0  0  0  0
    2.2397    7.5941    0.3336 H   0  0  0  1  0  0  0  0  0  0  0  0
    5.8352    5.3141   -0.2645 H   0  0  0  1  0  0  0  0  0  0  0  0
    0.5313    7.4088   -1.5408 H   0  0  0  1  0  0  0  0  0  0  0  0
    0.0179    6.5075   -0.1343 H   0  0  0  1  0  0  0  0  0  0  0  0
    1.3455    5.3767   -2.5768 H   0  0  0  1  0  0  0  0  0  0  0  0
   -0.3323    5.1892   -2.1270 H   0  0  0  1  0  0  0  0  0  0  0  0
    0.9208    4.4585   -1.1523 H   0  0  0  1  0  0  0  0  0  0  0  0
  1  2  1  0  0  0  0
  1  3  2  0  0  0  0
  1  5  1  0  0  0  0
  2  4  2  0  0  0  0
  2  8  1  0  0  0  0
  4  6  1  0  0  0  0
  4  9  1  0  0  0  0
  5 10  1  0  0  0  0
  6  7  1  0  0  0  0
  6 11  1  0  0  0  0
  6 12  1  0  0  0  0
  7 13  1  0  0  0  0
  7 14  1  0  0  0  0
  7 15  1  0  0  0  0
M  END
> <ConfClashScore>
0 

> <ConfOneFourInteractionScore>
-0.971698 

> <ConfScore>
0.659916 

> <ConfScorePBest>
0.00518512 

> <ConfTolerance>
0.0367701 

$$$$
*****
  PyMOL2.5          3D                             0

 15 14  0  0  0  0  0  0  0  0999 V2000
    4.1887    5.6667    0.4572 C   0  0  0  1  0  0  0  0  0  0  0  0
    3.1017    5.9479   -0.4755 C   0  0  0  1  0  0  0  0  0  0  0  0
    4.1670    6.1970    1.5751 O   0  0  0  1  0  0  0  0  0  0  0  0
    2.0949    6.7726   -0.3119 C   0  0  0  1  0  0  0  0  0  0  0  0
    5.1349    4.8818    0.0995 O   0  0  0  1  0  0  0  0  0  0  0  0
    0.7271    6.5911   -0.9138 C   0  0  0  1  0  0  0  0  0  0  0  0
    0.5514    5.2451   -1.5979 C   0  0  0  1  0  0  0  0  0  0  0  0
    3.1288    5.4325   -1.3784 H   0  0  0  1  0  0  0  0  0  0  0  0
    2.2534    7.6146    0.2775 H   0  0  0  1  0  0  0  0  0  0  0  0
    5.8827    5.4001   -0.2066 H   0  0  0  1  0  0  0  0  0  0  0  0
    0.5678    7.3638   -1.6366 H   0  0  0  1  0  0  0  0  0  0  0  0
   -0.0016    6.6749   -0.1348 H   0  0  0  1  0  0  0  0  0  0  0  0
    0.4652    4.4770   -0.8580 H   0  0  0  1  0  0  0  0  0  0  0  0
    1.3998    5.0477   -2.2193 H   0  0  0  1  0  0  0  0  0  0  0  0
   -0.3343    5.2632   -2.1979 H   0  0  0  1  0  0  0  0  0  0  0  0
  1  2  1  0  0  0  0
  1  3  2  0  0  0  0
  1  5  1  0  0  0  0
  2  4  2  0  0  0  0
  2  8  1  0  0  0  0
  4  6  1  0  0  0  0
  4  9  1  0  0  0  0
  5 10  1  0  0  0  0
  6  7  1  0  0  0  0
  6 11  1  0  0  0  0
  6 12  1  0  0  0  0
  7 13  1  0  0  0  0
  7 14  1  0  0  0  0
  7 15  1  0  0  0  0
M  END
> <ConfClashScore>
0 

> <ConfOneFourInteractionScore>
-0.971698 

> <ConfScore>
0.659916 

> <ConfScorePBest>
0.00515664 

> <ConfTolerance>
0.0371461 

$$$$
*****
  PyMOL2.5          3D                             0

 15 14  0  0  0  0  0  0  0  0999 V2000
    4.1668    5.6906    0.5114 C   0  0  0  1  0  0  0  0  0  0  0  0
    3.1508    6.0013   -0.4869 C   0  0  0  1  0  0  0  0  0  0  0  0
    4.1736    6.1579    1.6434 O   0  0  0  1  0  0  0  0  0  0  0  0
    2.0900    6.7433   -0.2893 C   0  0  0  1  0  0  0  0  0  0  0  0
    5.0904    4.8516    0.0845 O   0  0  0  1  0  0  0  0  0  0  0  0
    0.7531    6.6138   -0.9689 C   0  0  0  1  0  0  0  0  0  0  0  0
    0.6047    5.3177   -1.7489 C   0  0  0  1  0  0  0  0  0  0  0  0
    3.2795    5.5993   -1.4374 H   0  0  0  1  0  0  0  0  0  0  0  0
    2.1811    7.5046    0.4134 H   0  0  0  1  0  0  0  0  0  0  0  0
    5.7940    5.3419   -0.3469 H   0  0  0  1  0  0  0  0  0  0  0  0
    0.6341    7.4341   -1.6456 H   0  0  0  1  0  0  0  0  0  0  0  0
   -0.0132    6.6521   -0.2231 H   0  0  0  1  0  0  0  0  0  0  0  0
   -0.3851    5.2537   -2.1504 H   0  0  0  1  0  0  0  0  0  0  0  0
    0.7793    4.4874   -1.0970 H   0  0  0  1  0  0  0  0  0  0  0  0
    1.3155    5.2995   -2.5485 H   0  0  0  1  0  0  0  0  0  0  0  0
  1  2  1  0  0  0  0
  1  3  2  0  0  0  0
  1  5  1  0  0  0  0
  2  4  2  0  0  0  0
  2  8  1  0  0  0  0
  4  6  1  0  0  0  0
  4  9  1  0  0  0  0
  5 10  1  0  0  0  0
  6  7  1  0  0  0  0
  6 11  1  0  0  0  0
  6 12  1  0  0  0  0
  7 13  1  0  0  0  0
  7 14  1  0  0  0  0
  7 15  1  0  0  0  0
M  END
> <ConfClashScore>
0 

> <ConfOneFourInteractionScore>
-0.971698 

> <ConfScore>
0.659916 

> <ConfScorePBest>
0.00512816 

> <ConfTolerance>
0.0325316 

$$$$
*****
  PyMOL2.5          3D                             0

 15 14  0  0  0  0  0  0  0  0999 V2000
    4.2634    5.9131    0.4152 C   0  0  0  1  0  0  0  0  0  0  0  0
    3.2181    6.1047   -0.5910 C   0  0  0  1  0  0  0  0  0  0  0  0
    4.1555    6.2641    1.5836 O   0  0  0  1  0  0  0  0  0  0  0  0
    2.1234    6.7586   -0.2928 C   0  0  0  1  0  0  0  0  0  0  0  0
    5.3461    5.3218   -0.0510 O   0  0  0  1  0  0  0  0  0  0  0  0
    0.7517    6.5440   -0.8744 C   0  0  0  1  0  0  0  0  0  0  0  0
    0.1660    7.8006   -1.4976 C   0  0  0  1  0  0  0  0  0  0  0  0
    3.3454    5.7193   -1.5485 H   0  0  0  1  0  0  0  0  0  0  0  0
    2.2113    7.5073    0.4236 H   0  0  0  1  0  0  0  0  0  0  0  0
    5.2645    4.3715    0.0584 H   0  0  0  1  0  0  0  0  0  0  0  0
    0.0984    6.2148   -0.0936 H   0  0  0  1  0  0  0  0  0  0  0  0
    0.8161    5.7879   -1.6288 H   0  0  0  1  0  0  0  0  0  0  0  0
    0.3913    7.8189   -2.5435 H   0  0  0  1  0  0  0  0  0  0  0  0
    0.5897    8.6628   -1.0266 H   0  0  0  1  0  0  0  0  0  0  0  0
   -0.8953    7.8045   -1.3615 H   0  0  0  1  0  0  0  0  0  0  0  0
  1  2  1  0  0  0  0
  1  3  2  0  0  0  0
  1  5  1  0  0  0  0
  2  4  2  0  0  0  0
  2  8  1  0  0  0  0
  4  6  1  0  0  0  0
  4  9  1  0  0  0  0
  5 10  1  0  0  0  0
  6  7  1  0  0  0  0
  6 11  1  0  0  0  0
  6 12  1  0  0  0  0
  7 13  1  0  0  0  0
  7 14  1  0  0  0  0
  7 15  1  0  0  0  0
M  END
> <ConfClashScore>
0 

> <ConfOneFourInteractionScore>
-0.989347 

> <ConfScore>
0.665992 

> <ConfScorePBest>
0.00509968 

> <ConfTolerance>
0.0627958 

$$$$
*****
  PyMOL2.5          3D                             0

 15 14  0  0  0  0  0  0  0  0999 V2000
    4.2682    5.8428    0.4667 C   0  0  0  1  0  0  0  0  0  0  0  0
    3.2448    6.1941   -0.5105 C   0  0  0  1  0  0  0  0  0  0  0  0
    4.0676    5.9436    1.6659 O   0  0  0  1  0  0  0  0  0  0  0  0
    2.0813    6.7443   -0.2367 C   0  0  0  1  0  0  0  0  0  0  0  0
    5.3883    5.4221   -0.0451 O   0  0  0  1  0  0  0  0  0  0  0  0
    0.8422    6.5052   -1.0574 C   0  0  0  1  0  0  0  0  0  0  0  0
    0.2870    7.7752   -1.6813 C   0  0  0  1  0  0  0  0  0  0  0  0
    3.4522    5.9926   -1.5095 H   0  0  0  1  0  0  0  0  0  0  0  0
    2.0144    7.3755    0.5872 H   0  0  0  1  0  0  0  0  0  0  0  0
    5.3203    4.4840   -0.2376 H   0  0  0  1  0  0  0  0  0  0  0  0
    0.0913    6.0803   -0.4245 H   0  0  0  1  0  0  0  0  0  0  0  0
    1.0803    5.8167   -1.8410 H   0  0  0  1  0  0  0  0  0  0  0  0
   -0.1359    7.5480   -2.6376 H   0  0  0  1  0  0  0  0  0  0  0  0
    1.0760    8.4880   -1.8008 H   0  0  0  1  0  0  0  0  0  0  0  0
   -0.4699    8.1836   -1.0448 H   0  0  0  1  0  0  0  0  0  0  0  0
  1  2  1  0  0  0  0
  1  3  2  0  0  0  0
  1  5  1  0  0  0  0
  2  4  2  0  0  0  0
  2  8  1  0  0  0  0
  4  6  1  0  0  0  0
  4  9  1  0  0  0  0
  5 10  1  0  0  0  0
  6  7  1  0  0  0  0
  6 11  1  0  0  0  0
  6 12  1  0  0  0  0
  7 13  1  0  0  0  0
  7 14  1  0  0  0  0
  7 15  1  0  0  0  0
M  END
> <ConfClashScore>
0 

> <ConfOneFourInteractionScore>
-0.989347 

> <ConfScore>
0.666281 

> <ConfScorePBest>
0.0050712 

> <ConfTolerance>
0.0278375 

$$$$
*****
  PyMOL2.5          3D                             0

 15 14  0  0  0  0  0  0  0  0999 V2000
    4.1855    5.6571    0.5258 C   0  0  0  1  0  0  0  0  0  0  0  0
    3.1702    6.0863   -0.4320 C   0  0  0  1  0  0  0  0  0  0  0  0
    4.2259    6.0358    1.6898 O   0  0  0  1  0  0  0  0  0  0  0  0
    2.0535    6.7597   -0.2558 C   0  0  0  1  0  0  0  0  0  0  0  0
    5.0669    4.8151    0.0225 O   0  0  0  1  0  0  0  0  0  0  0  0
    0.8345    6.5762   -1.1197 C   0  0  0  1  0  0  0  0  0  0  0  0
   -0.3535    6.0084   -0.3603 C   0  0  0  1  0  0  0  0  0  0  0  0
    3.3616    5.8145   -1.4174 H   0  0  0  1  0  0  0  0  0  0  0  0
    2.0110    7.4528    0.5184 H   0  0  0  1  0  0  0  0  0  0  0  0
    5.7699    5.3068   -0.4084 H   0  0  0  1  0  0  0  0  0  0  0  0
    1.0801    5.9068   -1.9175 H   0  0  0  1  0  0  0  0  0  0  0  0
    0.5573    7.5273   -1.5240 H   0  0  0  1  0  0  0  0  0  0  0  0
   -0.4354    4.9599   -0.5574 H   0  0  0  1  0  0  0  0  0  0  0  0
   -1.2483    6.5018   -0.6779 H   0  0  0  1  0  0  0  0  0  0  0  0
   -0.2131    6.1640    0.6890 H   0  0  0  1  0  0  0  0  0  0  0  0
  1  2  1  0  0  0  0
  1  3  2  0  0  0  0
  1  5  1  0  0  0  0
  2  4  2  0  0  0  0
  2  8  1  0  0  0  0
  4  6  1  0  0  0  0
  4  9  1  0  0  0  0
  5 10  1  0  0  0  0
  6  7  1  0  0  0  0
  6 11  1  0  0  0  0
  6 12  1  0  0  0  0
  7 13  1  0  0  0  0
  7 14  1  0  0  0  0
  7 15  1  0  0  0  0
M  END
> <ConfClashScore>
0 

> <ConfOneFourInteractionScore>
-0.989347 

> <ConfScore>
0.67238 

> <ConfScorePBest>
0.00504272 

> <ConfTolerance>
0.056962 

$$$$
*****
  PyMOL2.5          3D                             0

 15 14  0  0  0  0  0  0  0  0999 V2000
    4.2383    5.7611    0.5325 C   0  0  0  1  0  0  0  0  0  0  0  0
    3.3023    6.2828   -0.4561 C   0  0  0  1  0  0  0  0  0  0  0  0
    3.9174    5.6165    1.7056 O   0  0  0  1  0  0  0  0  0  0  0  0
    2.0615    6.6297   -0.2221 C   0  0  0  1  0  0  0  0  0  0  0  0
    5.4176    5.4701    0.0654 O   0  0  0  1  0  0  0  0  0  0  0  0
    0.9040    6.5611   -1.1821 C   0  0  0  1  0  0  0  0  0  0  0  0
    1.2671    5.9109   -2.5072 C   0  0  0  1  0  0  0  0  0  0  0  0
    3.6498    6.3884   -1.4306 H   0  0  0  1  0  0  0  0  0  0  0  0
    1.8531    6.9920    0.7302 H   0  0  0  1  0  0  0  0  0  0  0  0
    5.3353    4.8026   -0.6196 H   0  0  0  1  0  0  0  0  0  0  0  0
    0.5610    7.5563   -1.3737 H   0  0  0  1  0  0  0  0  0  0  0  0
    0.1184    5.9937   -0.7283 H   0  0  0  1  0  0  0  0  0  0  0  0
    2.0288    6.4864   -2.9905 H   0  0  0  1  0  0  0  0  0  0  0  0
    0.4004    5.8695   -3.1332 H   0  0  0  1  0  0  0  0  0  0  0  0
    1.6279    4.9191   -2.3305 H   0  0  0  1  0  0  0  0  0  0  0  0
  1  2  1  0  0  0  0
  1  3  2  0  0  0  0
  1  5  1  0  0  0  0
  2  4  2  0  0  0  0
  2  8  1  0  0  0  0
  4  6  1  0  0  0  0
  4  9  1  0  0  0  0
  5 10  1  0  0  0  0
  6  7  1  0  0  0  0
  6 11  1  0  0  0  0
  6 12  1  0  0  0  0
  7 13  1  0  0  0  0
  7 14  1  0  0  0  0
  7 15  1  0  0  0  0
M  END
> <ConfClashScore>
0 

> <ConfOneFourInteractionScore>
-0.971698 

> <ConfScore>
0.672888 

> <ConfScorePBest>
0.00501424 

> <ConfTolerance>
0.0419419 

$$$$
*****
  PyMOL2.5          3D                             0

 15 14  0  0  0  0  0  0  0  0999 V2000
    4.1831    5.6833    0.5000 C   0  0  0  1  0  0  0  0  0  0  0  0
    3.1697    5.9666   -0.5099 C   0  0  0  1  0  0  0  0  0  0  0  0
    4.0624    6.2166    1.6177 O   0  0  0  1  0  0  0  0  0  0  0  0
    2.1277    6.7238   -0.2738 C   0  0  0  1  0  0  0  0  0  0  0  0
    5.1244    4.9072    0.1668 O   0  0  0  1  0  0  0  0  0  0  0  0
    0.7645    6.6125   -0.9025 C   0  0  0  1  0  0  0  0  0  0  0  0
    0.6963    5.3117   -1.6859 C   0  0  0  1  0  0  0  0  0  0  0  0
    3.2791    5.5501   -1.4565 H   0  0  0  1  0  0  0  0  0  0  0  0
    2.2559    7.4845    0.4237 H   0  0  0  1  0  0  0  0  0  0  0  0
    5.7125    5.3597   -0.4423 H   0  0  0  1  0  0  0  0  0  0  0  0
    0.6034    7.4393   -1.5623 H   0  0  0  1  0  0  0  0  0  0  0  0
    0.0146    6.6132   -0.1393 H   0  0  0  1  0  0  0  0  0  0  0  0
    0.8866    4.4888   -1.0290 H   0  0  0  1  0  0  0  0  0  0  0  0
    1.4317    5.3248   -2.4631 H   0  0  0  1  0  0  0  0  0  0  0  0
   -0.2772    5.2059   -2.1171 H   0  0  0  1  0  0  0  0  0  0  0  0
  1  2  1  0  0  0  0
  1  3  2  0  0  0  0
  1  5  1  0  0  0  0
  2  4  2  0  0  0  0
  2  8  1  0  0  0  0
  4  6  1  0  0  0  0
  4  9  1  0  0  0  0
  5 10  1  0  0  0  0
  6  7  1  0  0  0  0
  6 11  1  0  0  0  0
  6 12  1  0  0  0  0
  7 13  1  0  0  0  0
  7 14  1  0  0  0  0
  7 15  1  0  0  0  0
M  END
> <ConfClashScore>
0 

> <ConfOneFourInteractionScore>
-0.971698 

> <ConfScore>
0.674162 

> <ConfScorePBest>
0.00498576 

> <ConfTolerance>
0.0537173 

$$$$
*****
  PyMOL2.5          3D                             0

 15 14  0  0  0  0  0  0  0  0999 V2000
    4.1852    5.7281    0.4789 C   0  0  0  1  0  0  0  0  0  0  0  0
    3.1377    5.9965   -0.4990 C   0  0  0  1  0  0  0  0  0  0  0  0
    4.2475    6.3385    1.5283 O   0  0  0  1  0  0  0  0  0  0  0  0
    2.0861    6.7513   -0.3016 C   0  0  0  1  0  0  0  0  0  0  0  0
    5.0270    4.7976    0.1338 O   0  0  0  1  0  0  0  0  0  0  0  0
    0.7358    6.5971   -0.9264 C   0  0  0  1  0  0  0  0  0  0  0  0
    0.2047    7.7601   -1.7483 C   0  0  0  1  0  0  0  0  0  0  0  0
    3.2341    5.5502   -1.4335 H   0  0  0  1  0  0  0  0  0  0  0  0
    2.2023    7.5440    0.3615 H   0  0  0  1  0  0  0  0  0  0  0  0
    5.8235    5.2009   -0.2190 H   0  0  0  1  0  0  0  0  0  0  0  0
    0.0364    6.4172   -0.1369 H   0  0  0  1  0  0  0  0  0  0  0  0
    0.7763    5.7428   -1.5693 H   0  0  0  1  0  0  0  0  0  0  0  0
    0.5894    8.6789   -1.3575 H   0  0  0  1  0  0  0  0  0  0  0  0
   -0.8642    7.7721   -1.6998 H   0  0  0  1  0  0  0  0  0  0  0  0
    0.5148    7.6482   -2.7663 H   0  0  0  1  0  0  0  0  0  0  0  0
  1  2  1  0  0  0  0
  1  3  2  0  0  0  0
  1  5  1  0  0  0  0
  2  4  2  0  0  0  0
  2  8  1  0  0  0  0
  4  6  1  0  0  0  0
  4  9  1  0  0  0  0
  5 10  1  0  0  0  0
  6  7  1  0  0  0  0
  6 11  1  0  0  0  0
  6 12  1  0  0  0  0
  7 13  1  0  0  0  0
  7 14  1  0  0  0  0
  7 15  1  0  0  0  0
M  END
> <ConfClashScore>
0 

> <ConfOneFourInteractionScore>
-0.989347 

> <ConfScore>
0.675557 

> <ConfScorePBest>
0.00495728 

> <ConfTolerance>
0.0497075 

$$$$
*****
  PyMOL2.5          3D                             0

 15 14  0  0  0  0  0  0  0  0999 V2000
    4.1971    5.7819    0.3946 C   0  0  0  1  0  0  0  0  0  0  0  0
    3.0723    5.8696   -0.5376 C   0  0  0  1  0  0  0  0  0  0  0  0
    4.3163    6.6725    1.2554 O   0  0  0  1  0  0  0  0  0  0  0  0
    2.1300    6.7606   -0.3566 C   0  0  0  1  0  0  0  0  0  0  0  0
    4.9789    4.7969    0.2600 O   0  0  0  1  0  0  0  0  0  0  0  0
    0.6795    6.6375   -0.7400 C   0  0  0  1  0  0  0  0  0  0  0  0
    0.3957    5.4282   -1.6160 C   0  0  0  1  0  0  0  0  0  0  0  0
    3.0212    5.2205   -1.3486 H   0  0  0  1  0  0  0  0  0  0  0  0
    2.4145    7.6498    0.1017 H   0  0  0  1  0  0  0  0  0  0  0  0
    5.8694    5.1149    0.0942 H   0  0  0  1  0  0  0  0  0  0  0  0
    0.3921    7.5194   -1.2734 H   0  0  0  1  0  0  0  0  0  0  0  0
    0.0969    6.5549    0.1537 H   0  0  0  1  0  0  0  0  0  0  0  0
    0.9380    5.5171   -2.5341 H   0  0  0  1  0  0  0  0  0  0  0  0
   -0.6525    5.3772   -1.8246 H   0  0  0  1  0  0  0  0  0  0  0  0
    0.7020    4.5388   -1.1059 H   0  0  0  1  0  0  0  0  0  0  0  0
  1  2  1  0  0  0  0
  1  3  2  0  0  0  0
  1  5  1  0  0  0  0
  2  4  2  0  0  0  0
  2  8  1  0  0  0  0
  4  6  1  0  0  0  0
  4  9  1  0  0  0  0
  5 10  1  0  0  0  0
  6  7  1  0  0  0  0
  6 11  1  0  0  0  0
  6 12  1  0  0  0  0
  7 13  1  0  0  0  0
  7 14  1  0  0  0  0
  7 15  1  0  0  0  0
M  END
> <ConfClashScore>
0 

> <ConfOneFourInteractionScore>
-0.971698 

> <ConfScore>
0.679573 

> <ConfScorePBest>
0.0049288 

> <ConfTolerance>
0.0531615 

$$$$
*****
  PyMOL2.5          3D                             0

 15 14  0  0  0  0  0  0  0  0999 V2000
    4.2062    5.7575    0.4323 C   0  0  0  1  0  0  0  0  0  0  0  0
    3.1027    5.9864   -0.4953 C   0  0  0  1  0  0  0  0  0  0  0  0
    4.3677    6.4601    1.4224 O   0  0  0  1  0  0  0  0  0  0  0  0
    2.0734    6.7805   -0.3382 C   0  0  0  1  0  0  0  0  0  0  0  0
    4.9840    4.7625    0.1184 O   0  0  0  1  0  0  0  0  0  0  0  0
    0.6904    6.5933   -0.8988 C   0  0  0  1  0  0  0  0  0  0  0  0
    0.5776    5.3854   -1.8145 C   0  0  0  1  0  0  0  0  0  0  0  0
    3.1382    5.4549   -1.3886 H   0  0  0  1  0  0  0  0  0  0  0  0
    2.2291    7.6330    0.2367 H   0  0  0  1  0  0  0  0  0  0  0  0
    5.8874    5.0761    0.0341 H   0  0  0  1  0  0  0  0  0  0  0  0
    0.4273    7.4684   -1.4554 H   0  0  0  1  0  0  0  0  0  0  0  0
    0.0070    6.4687   -0.0850 H   0  0  0  1  0  0  0  0  0  0  0  0
    1.2598    5.4919   -2.6319 H   0  0  0  1  0  0  0  0  0  0  0  0
   -0.4215    5.3155   -2.1910 H   0  0  0  1  0  0  0  0  0  0  0  0
    0.8152    4.4983   -1.2653 H   0  0  0  1  0  0  0  0  0  0  0  0
  1  2  1  0  0  0  0
  1  3  2  0  0  0  0
  1  5  1  0  0  0  0
  2  4  2  0  0  0  0
  2  8  1  0  0  0  0
  4  6  1  0  0  0  0
  4  9  1  0  0  0  0
  5 10  1  0  0  0  0
  6  7  1  0  0  0  0
  6 11  1  0  0  0  0
  6 12  1  0  0  0  0
  7 13  1  0  0  0  0
  7 14  1  0  0  0  0
  7 15  1  0  0  0  0
M  END
> <ConfClashScore>
0 

> <ConfOneFourInteractionScore>
-0.971698 

> <ConfScore>
0.679573 

> <ConfScorePBest>
0.00490032 

> <ConfTolerance>
0.0439779 

$$$$
*****
  PyMOL2.5          3D                             0

 15 14  0  0  0  0  0  0  0  0999 V2000
    4.2408    5.8348    0.4851 C   0  0  0  1  0  0  0  0  0  0  0  0
    3.2276    6.2034   -0.4988 C   0  0  0  1  0  0  0  0  0  0  0  0
    4.0948    5.8395    1.7011 O   0  0  0  1  0  0  0  0  0  0  0  0
    2.0590    6.7137   -0.2808 C   0  0  0  1  0  0  0  0  0  0  0  0
    5.3990    5.4737   -0.0762 O   0  0  0  1  0  0  0  0  0  0  0  0
    0.7850    6.5642   -1.0685 C   0  0  0  1  0  0  0  0  0  0  0  0
    0.1790    7.8963   -1.4791 C   0  0  0  1  0  0  0  0  0  0  0  0
    3.4749    6.0356   -1.4950 H   0  0  0  1  0  0  0  0  0  0  0  0
    1.9895    7.3165    0.5638 H   0  0  0  1  0  0  0  0  0  0  0  0
    5.4087    4.5227   -0.2075 H   0  0  0  1  0  0  0  0  0  0  0  0
    0.0733    6.0368   -0.4682 H   0  0  0  1  0  0  0  0  0  0  0  0
    0.9954    5.9989   -1.9523 H   0  0  0  1  0  0  0  0  0  0  0  0
    0.7617    8.6951   -1.0699 H   0  0  0  1  0  0  0  0  0  0  0  0
   -0.8232    7.9609   -1.1098 H   0  0  0  1  0  0  0  0  0  0  0  0
    0.1719    7.9708   -2.5465 H   0  0  0  1  0  0  0  0  0  0  0  0
  1  2  1  0  0  0  0
  1  3  2  0  0  0  0
  1  5  1  0  0  0  0
  2  4  2  0  0  0  0
  2  8  1  0  0  0  0
  4  6  1  0  0  0  0
  4  9  1  0  0  0  0
  5 10  1  0  0  0  0
  6  7  1  0  0  0  0
  6 11  1  0  0  0  0
  6 12  1  0  0  0  0
  7 13  1  0  0  0  0
  7 14  1  0  0  0  0
  7 15  1  0  0  0  0
M  END
> <ConfClashScore>
0 

> <ConfOneFourInteractionScore>
-0.989347 

> <ConfScore>
0.683111 

> <ConfScorePBest>
0.00487184 

> <ConfTolerance>
0.0502743 

$$$$
*****
  PyMOL2.5          3D                             0

 15 14  0  0  0  0  0  0  0  0999 V2000
    4.3759    5.8095    0.1310 C   0  0  0  1  0  0  0  0  0  0  0  0
    2.9851    5.8122   -0.3119 C   0  0  0  1  0  0  0  0  0  0  0  0
    5.0683    6.8163   -0.1042 O   0  0  0  1  0  0  0  0  0  0  0  0
    2.2906    6.8240   -0.7749 C   0  0  0  1  0  0  0  0  0  0  0  0
    4.7859    4.7735    0.7294 O   0  0  0  1  0  0  0  0  0  0  0  0
    0.8035    6.9931   -0.6132 C   0  0  0  1  0  0  0  0  0  0  0  0
    0.2639    5.8112    0.1757 C   0  0  0  1  0  0  0  0  0  0  0  0
    2.4846    4.9024   -0.2534 H   0  0  0  1  0  0  0  0  0  0  0  0
    2.8057    7.5647   -1.2923 H   0  0  0  1  0  0  0  0  0  0  0  0
    5.0796    5.0087    1.6126 H   0  0  0  1  0  0  0  0  0  0  0  0
    0.3379    7.0264   -1.5760 H   0  0  0  1  0  0  0  0  0  0  0  0
    0.5994    7.9015   -0.0861 H   0  0  0  1  0  0  0  0  0  0  0  0
   -0.7710    5.9710    0.3954 H   0  0  0  1  0  0  0  0  0  0  0  0
    0.8113    5.7131    1.0898 H   0  0  0  1  0  0  0  0  0  0  0  0
    0.3716    4.9175   -0.4028 H   0  0  0  1  0  0  0  0  0  0  0  0
  1  2  1  0  0  0  0
  1  3  2  0  0  0  0
  1  5  1  0  0  0  0
  2  4  2  0  0  0  0
  2  8  1  0  0  0  0
  4  6  1  0  0  0  0
  4  9  1  0  0  0  0
  5 10  1  0  0  0  0
  6  7  1  0  0  0  0
  6 11  1  0  0  0  0
  6 12  1  0  0  0  0
  7 13  1  0  0  0  0
  7 14  1  0  0  0  0
  7 15  1  0  0  0  0
M  END
> <ConfClashScore>
0 

> <ConfOneFourInteractionScore>
-0.971698 

> <ConfScore>
0.684214 

> <ConfScorePBest>
0.00484336 

> <ConfTolerance>
0.0645967 

$$$$
*****
  PyMOL2.5          3D                             0

 15 14  0  0  0  0  0  0  0  0999 V2000
    4.2171    5.7293    0.5619 C   0  0  0  1  0  0  0  0  0  0  0  0
    3.2943    6.2465   -0.4413 C   0  0  0  1  0  0  0  0  0  0  0  0
    3.9247    5.5754    1.7363 O   0  0  0  1  0  0  0  0  0  0  0  0
    2.0717    6.6625   -0.2116 C   0  0  0  1  0  0  0  0  0  0  0  0
    5.4112    5.4383    0.0839 O   0  0  0  1  0  0  0  0  0  0  0  0
    0.9348    6.5780   -1.1946 C   0  0  0  1  0  0  0  0  0  0  0  0
   -0.2829    5.9302   -0.5560 C   0  0  0  1  0  0  0  0  0  0  0  0
    3.6345    6.2893   -1.4231 H   0  0  0  1  0  0  0  0  0  0  0  0
    1.8730    7.0820    0.7191 H   0  0  0  1  0  0  0  0  0  0  0  0
    5.3179    4.9029   -0.7075 H   0  0  0  1  0  0  0  0  0  0  0  0
    1.2419    5.9937   -2.0368 H   0  0  0  1  0  0  0  0  0  0  0  0
    0.6776    7.5646   -1.5192 H   0  0  0  1  0  0  0  0  0  0  0  0
   -0.8425    5.4074   -1.3032 H   0  0  0  1  0  0  0  0  0  0  0  0
   -0.8979    6.6860   -0.1137 H   0  0  0  1  0  0  0  0  0  0  0  0
    0.0346    5.2413    0.1987 H   0  0  0  1  0  0  0  0  0  0  0  0
  1  2  1  0  0  0  0
  1  3  2  0  0  0  0
  1  5  1  0  0  0  0
  2  4  2  0  0  0  0
  2  8  1  0  0  0  0
  4  6  1  0  0  0  0
  4  9  1  0  0  0  0
  5 10  1  0  0  0  0
  6  7  1  0  0  0  0
  6 11  1  0  0  0  0
  6 12  1  0  0  0  0
  7 13  1  0  0  0  0
  7 14  1  0  0  0  0
  7 15  1  0  0  0  0
M  END
> <ConfClashScore>
0 

> <ConfOneFourInteractionScore>
-0.989347 

> <ConfScore>
0.685064 

> <ConfScorePBest>
0.00481488 

> <ConfTolerance>
0.0660359 

$$$$
*****
  PyMOL2.5          3D                             0

 15 14  0  0  0  0  0  0  0  0999 V2000
    4.2666    5.8019    0.4935 C   0  0  0  1  0  0  0  0  0  0  0  0
    3.3068    6.2622   -0.5035 C   0  0  0  1  0  0  0  0  0  0  0  0
    3.9309    5.8338    1.6855 O   0  0  0  1  0  0  0  0  0  0  0  0
    2.0904    6.6552   -0.1913 C   0  0  0  1  0  0  0  0  0  0  0  0
    5.3870    5.3977    0.0683 O   0  0  0  1  0  0  0  0  0  0  0  0
    0.9125    6.5016   -1.1137 C   0  0  0  1  0  0  0  0  0  0  0  0
   -0.1111    5.4588   -0.6952 C   0  0  0  1  0  0  0  0  0  0  0  0
    3.5957    6.2805   -1.5024 H   0  0  0  1  0  0  0  0  0  0  0  0
    1.9360    7.0937    0.7390 H   0  0  0  1  0  0  0  0  0  0  0  0
    5.2534    4.6776   -0.5523 H   0  0  0  1  0  0  0  0  0  0  0  0
    1.2831    6.2310   -2.0803 H   0  0  0  1  0  0  0  0  0  0  0  0
    0.4149    7.4470   -1.1738 H   0  0  0  1  0  0  0  0  0  0  0  0
    0.1663    4.5056   -1.0946 H   0  0  0  1  0  0  0  0  0  0  0  0
   -1.0748    5.7351   -1.0691 H   0  0  0  1  0  0  0  0  0  0  0  0
   -0.1453    5.4014    0.3727 H   0  0  0  1  0  0  0  0  0  0  0  0
  1  2  1  0  0  0  0
  1  3  2  0  0  0  0
  1  5  1  0  0  0  0
  2  4  2  0  0  0  0
  2  8  1  0  0  0  0
  4  6  1  0  0  0  0
  4  9  1  0  0  0  0
  5 10  1  0  0  0  0
  6  7  1  0  0  0  0
  6 11  1  0  0  0  0
  6 12  1  0  0  0  0
  7 13  1  0  0  0  0
  7 14  1  0  0  0  0
  7 15  1  0  0  0  0
M  END
> <ConfClashScore>
0 

> <ConfOneFourInteractionScore>
-0.989347 

> <ConfScore>
0.685353 

> <ConfScorePBest>
0.00478639 

> <ConfTolerance>
0.0502635 

$$$$
*****
  PyMOL2.5          3D                             0

 15 14  0  0  0  0  0  0  0  0999 V2000
    4.2895    5.8506    0.4439 C   0  0  0  1  0  0  0  0  0  0  0  0
    3.2567    6.1830   -0.5300 C   0  0  0  1  0  0  0  0  0  0  0  0
    4.0353    6.0218    1.6499 O   0  0  0  1  0  0  0  0  0  0  0  0
    2.0940    6.7189   -0.2550 C   0  0  0  1  0  0  0  0  0  0  0  0
    5.3838    5.4066   -0.0086 O   0  0  0  1  0  0  0  0  0  0  0  0
    0.8119    6.5218   -0.9998 C   0  0  0  1  0  0  0  0  0  0  0  0
   -0.4037    6.4680   -0.0888 C   0  0  0  1  0  0  0  0  0  0  0  0
    3.4609    5.9768   -1.5287 H   0  0  0  1  0  0  0  0  0  0  0  0
    2.0581    7.3500    0.5708 H   0  0  0  1  0  0  0  0  0  0  0  0
    5.2889    4.4749   -0.2195 H   0  0  0  1  0  0  0  0  0  0  0  0
    0.8715    5.6018   -1.5429 H   0  0  0  1  0  0  0  0  0  0  0  0
    0.6880    7.3339   -1.6853 H   0  0  0  1  0  0  0  0  0  0  0  0
   -0.4823    7.3853    0.4565 H   0  0  0  1  0  0  0  0  0  0  0  0
   -0.2992    5.6535    0.5972 H   0  0  0  1  0  0  0  0  0  0  0  0
   -1.2852    6.3273   -0.6787 H   0  0  0  1  0  0  0  0  0  0  0  0
  1  2  1  0  0  0  0
  1  3  2  0  0  0  0
  1  5  1  0  0  0  0
  2  4  2  0  0  0  0
  2  8  1  0  0  0  0
  4  6  1  0  0  0  0
  4  9  1  0  0  0  0
  5 10  1  0  0  0  0
  6  7  1  0  0  0  0
  6 11  1  0  0  0  0
  6 12  1  0  0  0  0
  7 13  1  0  0  0  0
  7 14  1  0  0  0  0
  7 15  1  0  0  0  0
M  END
> <ConfClashScore>
0 

> <ConfOneFourInteractionScore>
-0.989347 

> <ConfScore>
0.685597 

> <ConfScorePBest>
0.00475791 

> <ConfTolerance>
0.034743 

$$$$
*****
  PyMOL2.5          3D                             0

 15 14  0  0  0  0  0  0  0  0999 V2000
    4.2794    5.8191    0.4712 C   0  0  0  1  0  0  0  0  0  0  0  0
    3.2388    6.2414   -0.4621 C   0  0  0  1  0  0  0  0  0  0  0  0
    4.0940    5.8208    1.6818 O   0  0  0  1  0  0  0  0  0  0  0  0
    2.0383    6.7232   -0.2450 C   0  0  0  1  0  0  0  0  0  0  0  0
    5.4002    5.4479   -0.0904 O   0  0  0  1  0  0  0  0  0  0  0  0
    0.8547    6.5269   -1.1542 C   0  0  0  1  0  0  0  0  0  0  0  0
   -0.4739    6.5540   -0.4163 C   0  0  0  1  0  0  0  0  0  0  0  0
    3.4917    6.1440   -1.4662 H   0  0  0  1  0  0  0  0  0  0  0  0
    1.8933    7.2825    0.6197 H   0  0  0  1  0  0  0  0  0  0  0  0
    5.3888    4.4984   -0.2316 H   0  0  0  1  0  0  0  0  0  0  0  0
    0.9538    5.5801   -1.6426 H   0  0  0  1  0  0  0  0  0  0  0  0
    0.8540    7.3078   -1.8857 H   0  0  0  1  0  0  0  0  0  0  0  0
   -0.6379    7.5310   -0.0118 H   0  0  0  1  0  0  0  0  0  0  0  0
   -0.4549    5.8378    0.3784 H   0  0  0  1  0  0  0  0  0  0  0  0
   -1.2641    6.3124   -1.0961 H   0  0  0  1  0  0  0  0  0  0  0  0
  1  2  1  0  0  0  0
  1  3  2  0  0  0  0
  1  5  1  0  0  0  0
  2  4  2  0  0  0  0
  2  8  1  0  0  0  0
  4  6  1  0  0  0  0
  4  9  1  0  0  0  0
  5 10  1  0  0  0  0
  6  7  1  0  0  0  0
  6 11  1  0  0  0  0
  6 12  1  0  0  0  0
  7 13  1  0  0  0  0
  7 14  1  0  0  0  0
  7 15  1  0  0  0  0
M  END
> <ConfClashScore>
0 

> <ConfOneFourInteractionScore>
-0.965547 

> <ConfScore>
0.685597 

> <ConfScorePBest>
0.00472943 

> <ConfTolerance>
0.0604207 

$$$$
*****
  PyMOL2.5          3D                             0

 15 14  0  0  0  0  0  0  0  0999 V2000
    4.3534    5.6428    0.0504 C   0  0  0  1  0  0  0  0  0  0  0  0
    2.9211    5.9174    0.0352 C   0  0  0  1  0  0  0  0  0  0  0  0
    5.0290    5.7314   -0.9563 O   0  0  0  1  0  0  0  0  0  0  0  0
    2.3190    6.4856   -0.9822 C   0  0  0  1  0  0  0  0  0  0  0  0
    4.8304    5.3026    1.2124 O   0  0  0  1  0  0  0  0  0  0  0  0
    1.1013    7.3647   -0.8802 C   0  0  0  1  0  0  0  0  0  0  0  0
    0.4478    7.6351   -2.2257 C   0  0  0  1  0  0  0  0  0  0  0  0
    2.3537    5.6516    0.8653 H   0  0  0  1  0  0  0  0  0  0  0  0
    2.7122    6.3162   -1.9300 H   0  0  0  1  0  0  0  0  0  0  0  0
    5.0591    6.0920    1.7085 H   0  0  0  1  0  0  0  0  0  0  0  0
    1.3914    8.2997   -0.4485 H   0  0  0  1  0  0  0  0  0  0  0  0
    0.3867    6.8844   -0.2450 H   0  0  0  1  0  0  0  0  0  0  0  0
   -0.5081    8.0911   -2.0733 H   0  0  0  1  0  0  0  0  0  0  0  0
    0.3226    6.7125   -2.7530 H   0  0  0  1  0  0  0  0  0  0  0  0
    1.0689    8.2921   -2.7980 H   0  0  0  1  0  0  0  0  0  0  0  0
  1  2  1  0  0  0  0
  1  3  2  0  0  0  0
  1  5  1  0  0  0  0
  2  4  2  0  0  0  0
  2  8  1  0  0  0  0
  4  6  1  0  0  0  0
  4  9  1  0  0  0  0
  5 10  1  0  0  0  0
  6  7  1  0  0  0  0
  6 11  1  0  0  0  0
  6 12  1  0  0  0  0
  7 13  1  0  0  0  0
  7 14  1  0  0  0  0
  7 15  1  0  0  0  0
M  END
> <ConfClashScore>
0 

> <ConfOneFourInteractionScore>
-0.965547 

> <ConfScore>
0.687839 

> <ConfScorePBest>
0.00470095 

> <ConfTolerance>
0.0550055 

$$$$
*****
  PyMOL2.5          3D                             0

 15 14  0  0  0  0  0  0  0  0999 V2000
    4.2416    5.7636    0.5280 C   0  0  0  1  0  0  0  0  0  0  0  0
    3.2993    6.2915   -0.4513 C   0  0  0  1  0  0  0  0  0  0  0  0
    3.9291    5.6147    1.7028 O   0  0  0  1  0  0  0  0  0  0  0  0
    2.0565    6.6331   -0.2079 C   0  0  0  1  0  0  0  0  0  0  0  0
    5.4167    5.4721    0.0509 O   0  0  0  1  0  0  0  0  0  0  0  0
    0.9302    6.5493   -1.2030 C   0  0  0  1  0  0  0  0  0  0  0  0
    0.3805    7.9109   -1.5961 C   0  0  0  1  0  0  0  0  0  0  0  0
    3.6419    6.4073   -1.4264 H   0  0  0  1  0  0  0  0  0  0  0  0
    1.8326    6.9882    0.7436 H   0  0  0  1  0  0  0  0  0  0  0  0
    5.3312    4.7846   -0.6137 H   0  0  0  1  0  0  0  0  0  0  0  0
    0.1377    5.9734   -0.7728 H   0  0  0  1  0  0  0  0  0  0  0  0
    1.2898    6.0600   -2.0840 H   0  0  0  1  0  0  0  0  0  0  0  0
    0.4905    8.5905   -0.7770 H   0  0  0  1  0  0  0  0  0  0  0  0
   -0.6559    7.8183   -1.8456 H   0  0  0  1  0  0  0  0  0  0  0  0
    0.9198    8.2822   -2.4423 H   0  0  0  1  0  0  0  0  0  0  0  0
  1  2  1  0  0  0  0
  1  3  2  0  0  0  0
  1  5  1  0  0  0  0
  2  4  2  0  0  0  0
  2  8  1  0  0  0  0
  4  6  1  0  0  0  0
  4  9  1  0  0  0  0
  5 10  1  0  0  0  0
  6  7  1  0  0  0  0
  6 11  1  0  0  0  0
  6 12  1  0  0  0  0
  7 13  1  0  0  0  0
  7 14  1  0  0  0  0
  7 15  1  0  0  0  0
M  END
> <ConfClashScore>
0 

> <ConfOneFourInteractionScore>
-0.989347 

> <ConfScore>
0.68853 

> <ConfScorePBest>
0.00467247 

> <ConfTolerance>
0.0496965 

$$$$
*****
  PyMOL2.5          3D                             0

 15 14  0  0  0  0  0  0  0  0999 V2000
    4.1634    5.6244    0.5531 C   0  0  0  1  0  0  0  0  0  0  0  0
    3.1647    5.9510   -0.4575 C   0  0  0  1  0  0  0  0  0  0  0  0
    4.0014    5.9099    1.7236 O   0  0  0  1  0  0  0  0  0  0  0  0
    2.1363    6.7430   -0.2846 C   0  0  0  1  0  0  0  0  0  0  0  0
    5.2189    5.0138    0.0984 O   0  0  0  1  0  0  0  0  0  0  0  0
    0.7971    6.6526   -0.9661 C   0  0  0  1  0  0  0  0  0  0  0  0
    0.5981    7.7180   -2.0317 C   0  0  0  1  0  0  0  0  0  0  0  0
    3.2789    5.5179   -1.3961 H   0  0  0  1  0  0  0  0  0  0  0  0
    2.2580    7.5187    0.3974 H   0  0  0  1  0  0  0  0  0  0  0  0
    5.6604    5.5731   -0.5450 H   0  0  0  1  0  0  0  0  0  0  0  0
    0.0310    6.7626   -0.2273 H   0  0  0  1  0  0  0  0  0  0  0  0
    0.7137    5.6904   -1.4267 H   0  0  0  1  0  0  0  0  0  0  0  0
    1.5432    8.1514   -2.2843 H   0  0  0  1  0  0  0  0  0  0  0  0
   -0.0543    8.4790   -1.6575 H   0  0  0  1  0  0  0  0  0  0  0  0
    0.1654    7.2735   -2.9036 H   0  0  0  1  0  0  0  0  0  0  0  0
  1  2  1  0  0  0  0
  1  3  2  0  0  0  0
  1  5  1  0  0  0  0
  2  4  2  0  0  0  0
  2  8  1  0  0  0  0
  4  6  1  0  0  0  0
  4  9  1  0  0  0  0
  5 10  1  0  0  0  0
  6  7  1  0  0  0  0
  6 11  1  0  0  0  0
  6 12  1  0  0  0  0
  7 13  1  0  0  0  0
  7 14  1  0  0  0  0
  7 15  1  0  0  0  0
M  END
> <ConfClashScore>
0 

> <ConfOneFourInteractionScore>
-0.989347 

> <ConfScore>
0.690093 

> <ConfScorePBest>
0.00464399 

> <ConfTolerance>
0.0463077 

$$$$
*****
  PyMOL2.5          3D                             0

 15 14  0  0  0  0  0  0  0  0999 V2000
    4.2126    5.7330    0.3918 C   0  0  0  1  0  0  0  0  0  0  0  0
    3.0598    5.9617   -0.4747 C   0  0  0  1  0  0  0  0  0  0  0  0
    4.2925    6.2456    1.5013 O   0  0  0  1  0  0  0  0  0  0  0  0
    2.0658    6.8112   -0.3707 C   0  0  0  1  0  0  0  0  0  0  0  0
    5.1255    4.9534   -0.1107 O   0  0  0  1  0  0  0  0  0  0  0  0
    0.6710    6.5710   -0.8835 C   0  0  0  1  0  0  0  0  0  0  0  0
   -0.3620    6.9690    0.1580 C   0  0  0  1  0  0  0  0  0  0  0  0
    3.0203    5.3490   -1.3142 H   0  0  0  1  0  0  0  0  0  0  0  0
    2.2555    7.7184    0.1011 H   0  0  0  1  0  0  0  0  0  0  0  0
    5.9762    5.1610    0.2827 H   0  0  0  1  0  0  0  0  0  0  0  0
    0.5557    5.5322   -1.1129 H   0  0  0  1  0  0  0  0  0  0  0  0
    0.5180    7.1515   -1.7692 H   0  0  0  1  0  0  0  0  0  0  0  0
   -0.3944    6.2289    0.9300 H   0  0  0  1  0  0  0  0  0  0  0  0
   -1.3240    7.0439   -0.3046 H   0  0  0  1  0  0  0  0  0  0  0  0
   -0.0949    7.9145    0.5817 H   0  0  0  1  0  0  0  0  0  0  0  0
  1  2  1  0  0  0  0
  1  3  2  0  0  0  0
  1  5  1  0  0  0  0
  2  4  2  0  0  0  0
  2  8  1  0  0  0  0
  4  6  1  0  0  0  0
  4  9  1  0  0  0  0
  5 10  1  0  0  0  0
  6  7  1  0  0  0  0
  6 11  1  0  0  0  0
  6 12  1  0  0  0  0
  7 13  1  0  0  0  0
  7 14  1  0  0  0  0
  7 15  1  0  0  0  0
M  END
> <ConfClashScore>
0 

> <ConfOneFourInteractionScore>
-0.989347 

> <ConfScore>
0.691244 

> <ConfScorePBest>
0.00461551 

> <ConfTolerance>
0.0751745 

$$$$
*****
  PyMOL2.5          3D                             0

 15 14  0  0  0  0  0  0  0  0999 V2000
    4.2855    5.8674    0.4400 C   0  0  0  1  0  0  0  0  0  0  0  0
    3.2477    6.2042   -0.5269 C   0  0  0  1  0  0  0  0  0  0  0  0
    4.1362    6.0723    1.6383 O   0  0  0  1  0  0  0  0  0  0  0  0
    2.0847    6.7504   -0.2431 C   0  0  0  1  0  0  0  0  0  0  0  0
    5.3592    5.3419   -0.0743 O   0  0  0  1  0  0  0  0  0  0  0  0
    0.8364    6.4970   -1.0454 C   0  0  0  1  0  0  0  0  0  0  0  0
    0.0021    5.3486   -0.5018 C   0  0  0  1  0  0  0  0  0  0  0  0
    3.4432    5.9947   -1.5267 H   0  0  0  1  0  0  0  0  0  0  0  0
    2.0250    7.3887    0.5758 H   0  0  0  1  0  0  0  0  0  0  0  0
    5.2613    4.3877   -0.1146 H   0  0  0  1  0  0  0  0  0  0  0  0
    1.1191    6.2664   -2.0513 H   0  0  0  1  0  0  0  0  0  0  0  0
    0.2399    7.3852   -1.0368 H   0  0  0  1  0  0  0  0  0  0  0  0
   -0.9500    5.3365   -0.9899 H   0  0  0  1  0  0  0  0  0  0  0  0
   -0.1387    5.4775    0.5510 H   0  0  0  1  0  0  0  0  0  0  0  0
    0.5078    4.4234   -0.6839 H   0  0  0  1  0  0  0  0  0  0  0  0
  1  2  1  0  0  0  0
  1  3  2  0  0  0  0
  1  5  1  0  0  0  0
  2  4  2  0  0  0  0
  2  8  1  0  0  0  0
  4  6  1  0  0  0  0
  4  9  1  0  0  0  0
  5 10  1  0  0  0  0
  6  7  1  0  0  0  0
  6 11  1  0  0  0  0
  6 12  1  0  0  0  0
  7 13  1  0  0  0  0
  7 14  1  0  0  0  0
  7 15  1  0  0  0  0
M  END
> <ConfClashScore>
0 

> <ConfOneFourInteractionScore>
-0.989347 

> <ConfScore>
0.691602 

> <ConfScorePBest>
0.00458703 

> <ConfTolerance>
0.0399181 

$$$$
*****
  PyMOL2.5          3D                             0

 15 14  0  0  0  0  0  0  0  0999 V2000
    4.1815    5.7323    0.4229 C   0  0  0  1  0  0  0  0  0  0  0  0
    3.0824    5.8755   -0.5327 C   0  0  0  1  0  0  0  0  0  0  0  0
    4.1834    6.4647    1.4288 O   0  0  0  1  0  0  0  0  0  0  0  0
    2.1334    6.7570   -0.3253 C   0  0  0  1  0  0  0  0  0  0  0  0
    5.0632    4.8650    0.1582 O   0  0  0  1  0  0  0  0  0  0  0  0
    0.7068    6.6072   -0.7772 C   0  0  0  1  0  0  0  0  0  0  0  0
   -0.2522    6.3152    0.3653 C   0  0  0  1  0  0  0  0  0  0  0  0
    3.0535    5.2748   -1.3812 H   0  0  0  1  0  0  0  0  0  0  0  0
    2.3864    7.6241    0.1901 H   0  0  0  1  0  0  0  0  0  0  0  0
    5.8886    5.3036   -0.0606 H   0  0  0  1  0  0  0  0  0  0  0  0
    0.6549    5.8017   -1.4797 H   0  0  0  1  0  0  0  0  0  0  0  0
    0.4031    7.5162   -1.2530 H   0  0  0  1  0  0  0  0  0  0  0  0
   -0.3445    5.2569    0.4926 H   0  0  0  1  0  0  0  0  0  0  0  0
   -1.2117    6.7322    0.1407 H   0  0  0  1  0  0  0  0  0  0  0  0
    0.1245    6.7512    1.2670 H   0  0  0  1  0  0  0  0  0  0  0  0
  1  2  1  0  0  0  0
  1  3  2  0  0  0  0
  1  5  1  0  0  0  0
  2  4  2  0  0  0  0
  2  8  1  0  0  0  0
  4  6  1  0  0  0  0
  4  9  1  0  0  0  0
  5 10  1  0  0  0  0
  6  7  1  0  0  0  0
  6 11  1  0  0  0  0
  6 12  1  0  0  0  0
  7 13  1  0  0  0  0
  7 14  1  0  0  0  0
  7 15  1  0  0  0  0
M  END
> <ConfClashScore>
0 

> <ConfOneFourInteractionScore>
-0.989347 

> <ConfScore>
0.692038 

> <ConfScorePBest>
0.00455855 

> <ConfTolerance>
0.0564816 

$$$$
*****
  PyMOL2.5          3D                             0

 15 14  0  0  0  0  0  0  0  0999 V2000
    4.1678    5.4886    0.3964 C   0  0  0  1  0  0  0  0  0  0  0  0
    2.8541    5.6896   -0.2086 C   0  0  0  1  0  0  0  0  0  0  0  0
    4.4319    4.4817    1.0241 O   0  0  0  1  0  0  0  0  0  0  0  0
    2.3057    6.7610   -0.7246 C   0  0  0  1  0  0  0  0  0  0  0  0
    5.0096    6.4627    0.2065 O   0  0  0  1  0  0  0  0  0  0  0  0
    0.8410    7.1074   -0.7504 C   0  0  0  1  0  0  0  0  0  0  0  0
    0.4735    8.2133    0.2255 C   0  0  0  1  0  0  0  0  0  0  0  0
    2.2541    4.8405   -0.2340 H   0  0  0  1  0  0  0  0  0  0  0  0
    2.9522    7.4468   -1.1642 H   0  0  0  1  0  0  0  0  0  0  0  0
    5.8627    6.2260    0.5779 H   0  0  0  1  0  0  0  0  0  0  0  0
    0.2794    6.2317   -0.5001 H   0  0  0  1  0  0  0  0  0  0  0  0
    0.5839    7.4262   -1.7390 H   0  0  0  1  0  0  0  0  0  0  0  0
    1.1572    9.0288    0.1152 H   0  0  0  1  0  0  0  0  0  0  0  0
    0.5254    7.8375    1.2260 H   0  0  0  1  0  0  0  0  0  0  0  0
   -0.5210    8.5519    0.0223 H   0  0  0  1  0  0  0  0  0  0  0  0
  1  2  1  0  0  0  0
  1  3  2  0  0  0  0
  1  5  1  0  0  0  0
  2  4  2  0  0  0  0
  2  8  1  0  0  0  0
  4  6  1  0  0  0  0
  4  9  1  0  0  0  0
  5 10  1  0  0  0  0
  6  7  1  0  0  0  0
  6 11  1  0  0  0  0
  6 12  1  0  0  0  0
  7 13  1  0  0  0  0
  7 14  1  0  0  0  0
  7 15  1  0  0  0  0
M  END
> <ConfClashScore>
0 

> <ConfOneFourInteractionScore>
-0.989347 

> <ConfScore>
0.692207 

> <ConfScorePBest>
0.00453007 

> <ConfTolerance>
0.0534885 

$$$$
*****
  PyMOL2.5          3D                             0

 15 14  0  0  0  0  0  0  0  0999 V2000
    4.2022    5.6991    0.4660 C   0  0  0  1  0  0  0  0  0  0  0  0
    3.1438    6.0241   -0.4852 C   0  0  0  1  0  0  0  0  0  0  0  0
    4.2489    6.3172    1.5450 O   0  0  0  1  0  0  0  0  0  0  0  0
    2.0776    6.7604   -0.2812 C   0  0  0  1  0  0  0  0  0  0  0  0
    5.0541    4.7902    0.1701 O   0  0  0  1  0  0  0  0  0  0  0  0
    0.7547    6.5700   -0.9737 C   0  0  0  1  0  0  0  0  0  0  0  0
    0.0183    7.8497   -1.3350 C   0  0  0  1  0  0  0  0  0  0  0  0
    3.2475    5.6237   -1.4394 H   0  0  0  1  0  0  0  0  0  0  0  0
    2.1518    7.5334    0.4106 H   0  0  0  1  0  0  0  0  0  0  0  0
    5.7985    5.1860   -0.2891 H   0  0  0  1  0  0  0  0  0  0  0  0
    0.1232    5.9971   -0.3274 H   0  0  0  1  0  0  0  0  0  0  0  0
    0.9306    6.0242   -1.8771 H   0  0  0  1  0  0  0  0  0  0  0  0
   -0.2163    8.3910   -0.4423 H   0  0  0  1  0  0  0  0  0  0  0  0
   -0.8862    7.6065   -1.8524 H   0  0  0  1  0  0  0  0  0  0  0  0
    0.6389    8.4525   -1.9646 H   0  0  0  1  0  0  0  0  0  0  0  0
  1  2  1  0  0  0  0
  1  3  2  0  0  0  0
  1  5  1  0  0  0  0
  2  4  2  0  0  0  0
  2  8  1  0  0  0  0
  4  6  1  0  0  0  0
  4  9  1  0  0  0  0
  5 10  1  0  0  0  0
  6  7  1  0  0  0  0
  6 11  1  0  0  0  0
  6 12  1  0  0  0  0
  7 13  1  0  0  0  0
  7 14  1  0  0  0  0
  7 15  1  0  0  0  0
M  END
> <ConfClashScore>
0 

> <ConfOneFourInteractionScore>
-0.989347 

> <ConfScore>
0.692772 

> <ConfScorePBest>
0.00450159 

> <ConfTolerance>
0.0501876 

$$$$
*****
  PyMOL2.5          3D                             0

 15 14  0  0  0  0  0  0  0  0999 V2000
    4.1852    5.6642    0.4792 C   0  0  0  1  0  0  0  0  0  0  0  0
    3.1277    5.9340   -0.4875 C   0  0  0  1  0  0  0  0  0  0  0  0
    4.0974    6.1858    1.6055 O   0  0  0  1  0  0  0  0  0  0  0  0
    2.1158    6.7445   -0.3036 C   0  0  0  1  0  0  0  0  0  0  0  0
    5.1287    4.9108    0.1027 O   0  0  0  1  0  0  0  0  0  0  0  0
    0.7367    6.6222   -0.8946 C   0  0  0  1  0  0  0  0  0  0  0  0
    0.0912    7.8856   -1.4400 C   0  0  0  1  0  0  0  0  0  0  0  0
    3.1817    5.4405   -1.4013 H   0  0  0  1  0  0  0  0  0  0  0  0
    2.2830    7.5613    0.3181 H   0  0  0  1  0  0  0  0  0  0  0  0
    5.8229    5.4411   -0.2954 H   0  0  0  1  0  0  0  0  0  0  0  0
    0.0938    6.2385   -0.1302 H   0  0  0  1  0  0  0  0  0  0  0  0
    0.7943    5.9192   -1.6991 H   0  0  0  1  0  0  0  0  0  0  0  0
    0.7110    8.3010   -2.2069 H   0  0  0  1  0  0  0  0  0  0  0  0
   -0.0229    8.5975   -0.6493 H   0  0  0  1  0  0  0  0  0  0  0  0
   -0.8691    7.6477   -1.8477 H   0  0  0  1  0  0  0  0  0  0  0  0
  1  2  1  0  0  0  0
  1  3  2  0  0  0  0
  1  5  1  0  0  0  0
  2  4  2  0  0  0  0
  2  8  1  0  0  0  0
  4  6  1  0  0  0  0
  4  9  1  0  0  0  0
  5 10  1  0  0  0  0
  6  7  1  0  0  0  0
  6 11  1  0  0  0  0
  6 12  1  0  0  0  0
  7 13  1  0  0  0  0
  7 14  1  0  0  0  0
  7 15  1  0  0  0  0
M  END
> <ConfClashScore>
0 

> <ConfOneFourInteractionScore>
-0.989347 

> <ConfScore>
0.692772 

> <ConfScorePBest>
0.00447311 

> <ConfTolerance>
0.0482047 

$$$$
*****
  PyMOL2.5          3D                             0

 15 14  0  0  0  0  0  0  0  0999 V2000
    4.2047    5.7532    0.4252 C   0  0  0  1  0  0  0  0  0  0  0  0
    3.1078    5.9254   -0.5204 C   0  0  0  1  0  0  0  0  0  0  0  0
    4.2677    6.5678    1.3564 O   0  0  0  1  0  0  0  0  0  0  0  0
    2.1235    6.7685   -0.3182 C   0  0  0  1  0  0  0  0  0  0  0  0
    4.9777    4.7926    0.1990 O   0  0  0  1  0  0  0  0  0  0  0  0
    0.7152    6.5829   -0.8163 C   0  0  0  1  0  0  0  0  0  0  0  0
    0.0729    7.7441   -1.5576 C   0  0  0  1  0  0  0  0  0  0  0  0
    3.1059    5.3562   -1.3908 H   0  0  0  1  0  0  0  0  0  0  0  0
    2.3316    7.6295    0.2268 H   0  0  0  1  0  0  0  0  0  0  0  0
    5.8451    5.1283   -0.0385 H   0  0  0  1  0  0  0  0  0  0  0  0
    0.1012    6.3662    0.0328 H   0  0  0  1  0  0  0  0  0  0  0  0
    0.7180    5.7425   -1.4787 H   0  0  0  1  0  0  0  0  0  0  0  0
    0.4145    8.6677   -1.1391 H   0  0  0  1  0  0  0  0  0  0  0  0
   -0.9911    7.6821   -1.4635 H   0  0  0  1  0  0  0  0  0  0  0  0
    0.3432    7.6999   -2.5919 H   0  0  0  1  0  0  0  0  0  0  0  0
  1  2  1  0  0  0  0
  1  3  2  0  0  0  0
  1  5  1  0  0  0  0
  2  4  2  0  0  0  0
  2  8  1  0  0  0  0
  4  6  1  0  0  0  0
  4  9  1  0  0  0  0
  5 10  1  0  0  0  0
  6  7  1  0  0  0  0
  6 11  1  0  0  0  0
  6 12  1  0  0  0  0
  7 13  1  0  0  0  0
  7 14  1  0  0  0  0
  7 15  1  0  0  0  0
M  END
> <ConfClashScore>
0 

> <ConfOneFourInteractionScore>
-0.989347 

> <ConfScore>
0.695215 

> <ConfScorePBest>
0.00444463 

> <ConfTolerance>
0.0501876 

$$$$
*****
  PyMOL2.5          3D                             0

 15 14  0  0  0  0  0  0  0  0999 V2000
    4.1362    5.4959    0.3953 C   0  0  0  1  0  0  0  0  0  0  0  0
    2.8131    5.6162   -0.2065 C   0  0  0  1  0  0  0  0  0  0  0  0
    4.4592    4.5091    1.0358 O   0  0  0  1  0  0  0  0  0  0  0  0
    2.3627    6.7408   -0.7094 C   0  0  0  1  0  0  0  0  0  0  0  0
    4.9218    6.5132    0.1913 O   0  0  0  1  0  0  0  0  0  0  0  0
    0.9239    7.1482   -0.7403 C   0  0  0  1  0  0  0  0  0  0  0  0
    0.3251    7.3201   -2.1268 C   0  0  0  1  0  0  0  0  0  0  0  0
    2.2016    4.7756   -0.2381 H   0  0  0  1  0  0  0  0  0  0  0  0
    3.0579    7.3981   -1.1171 H   0  0  0  1  0  0  0  0  0  0  0  0
    5.8028    6.3072    0.5122 H   0  0  0  1  0  0  0  0  0  0  0  0
    0.8338    8.0810   -0.2239 H   0  0  0  1  0  0  0  0  0  0  0  0
    0.3577    6.3995   -0.2267 H   0  0  0  1  0  0  0  0  0  0  0  0
    0.3224    6.3780   -2.6340 H   0  0  0  1  0  0  0  0  0  0  0  0
    0.9098    8.0227   -2.6830 H   0  0  0  1  0  0  0  0  0  0  0  0
   -0.6786    7.6807   -2.0393 H   0  0  0  1  0  0  0  0  0  0  0  0
  1  2  1  0  0  0  0
  1  3  2  0  0  0  0
  1  5  1  0  0  0  0
  2  4  2  0  0  0  0
  2  8  1  0  0  0  0
  4  6  1  0  0  0  0
  4  9  1  0  0  0  0
  5 10  1  0  0  0  0
  6  7  1  0  0  0  0
  6 11  1  0  0  0  0
  6 12  1  0  0  0  0
  7 13  1  0  0  0  0
  7 14  1  0  0  0  0
  7 15  1  0  0  0  0
M  END
> <ConfClashScore>
0 

> <ConfOneFourInteractionScore>
-0.989347 

> <ConfScore>
0.695673 

> <ConfScorePBest>
0.00441614 

> <ConfTolerance>
0.0743838 

$$$$
*****
  PyMOL2.5          3D                             0

 15 14  0  0  0  0  0  0  0  0999 V2000
    4.1749    5.6501    0.5270 C   0  0  0  1  0  0  0  0  0  0  0  0
    3.1354    5.9575   -0.4505 C   0  0  0  1  0  0  0  0  0  0  0  0
    4.0710    5.9518    1.6945 O   0  0  0  1  0  0  0  0  0  0  0  0
    2.1084    6.7570   -0.3057 C   0  0  0  1  0  0  0  0  0  0  0  0
    5.1635    4.9554    0.0266 O   0  0  0  1  0  0  0  0  0  0  0  0
    0.7603    6.6301   -0.9632 C   0  0  0  1  0  0  0  0  0  0  0  0
   -0.1308    7.8575   -0.8647 C   0  0  0  1  0  0  0  0  0  0  0  0
    3.2206    5.4848   -1.3729 H   0  0  0  1  0  0  0  0  0  0  0  0
    2.2383    7.5675    0.3329 H   0  0  0  1  0  0  0  0  0  0  0  0
    5.8068    5.5502   -0.3657 H   0  0  0  1  0  0  0  0  0  0  0  0
    0.2457    5.8110   -0.5057 H   0  0  0  1  0  0  0  0  0  0  0  0
    0.9175    6.4186   -2.0003 H   0  0  0  1  0  0  0  0  0  0  0  0
   -0.4246    8.0048    0.1535 H   0  0  0  1  0  0  0  0  0  0  0  0
   -1.0017    7.7152   -1.4699 H   0  0  0  1  0  0  0  0  0  0  0  0
    0.4065    8.7166   -1.2085 H   0  0  0  1  0  0  0  0  0  0  0  0
  1  2  1  0  0  0  0
  1  3  2  0  0  0  0
  1  5  1  0  0  0  0
  2  4  2  0  0  0  0
  2  8  1  0  0  0  0
  4  6  1  0  0  0  0
  4  9  1  0  0  0  0
  5 10  1  0  0  0  0
  6  7  1  0  0  0  0
  6 11  1  0  0  0  0
  6 12  1  0  0  0  0
  7 13  1  0  0  0  0
  7 14  1  0  0  0  0
  7 15  1  0  0  0  0
M  END
> <ConfClashScore>
0 

> <ConfOneFourInteractionScore>
-0.965547 

> <ConfScore>
0.697404 

> <ConfScorePBest>
0.00438766 

> <ConfTolerance>
0.0621415 

$$$$
*****
  PyMOL2.5          3D                             0

 15 14  0  0  0  0  0  0  0  0999 V2000
    4.1802    5.7209    0.4551 C   0  0  0  1  0  0  0  0  0  0  0  0
    3.1173    5.9119   -0.5327 C   0  0  0  1  0  0  0  0  0  0  0  0
    4.1461    6.4061    1.4933 O   0  0  0  1  0  0  0  0  0  0  0  0
    2.1341    6.7474   -0.2963 C   0  0  0  1  0  0  0  0  0  0  0  0
    5.0695    4.8639    0.1831 O   0  0  0  1  0  0  0  0  0  0  0  0
    0.7325    6.5963   -0.8203 C   0  0  0  1  0  0  0  0  0  0  0  0
   -0.1192    7.7947   -0.4346 C   0  0  0  1  0  0  0  0  0  0  0  0
    3.1417    5.3821   -1.4273 H   0  0  0  1  0  0  0  0  0  0  0  0
    2.3390    7.5760    0.2978 H   0  0  0  1  0  0  0  0  0  0  0  0
    5.8188    5.2996   -0.2296 H   0  0  0  1  0  0  0  0  0  0  0  0
    0.2976    5.7097   -0.4084 H   0  0  0  1  0  0  0  0  0  0  0  0
    0.7634    6.5167   -1.8869 H   0  0  0  1  0  0  0  0  0  0  0  0
    0.1506    8.6345   -1.0404 H   0  0  0  1  0  0  0  0  0  0  0  0
    0.0446    8.0314    0.5960 H   0  0  0  1  0  0  0  0  0  0  0  0
   -1.1523    7.5619   -0.5878 H   0  0  0  1  0  0  0  0  0  0  0  0
  1  2  1  0  0  0  0
  1  3  2  0  0  0  0
  1  5  1  0  0  0  0
  2  4  2  0  0  0  0
  2  8  1  0  0  0  0
  4  6  1  0  0  0  0
  4  9  1  0  0  0  0
  5 10  1  0  0  0  0
  6  7  1  0  0  0  0
  6 11  1  0  0  0  0
  6 12  1  0  0  0  0
  7 13  1  0  0  0  0
  7 14  1  0  0  0  0
  7 15  1  0  0  0  0
M  END
> <ConfClashScore>
0 

> <ConfOneFourInteractionScore>
-0.954894 

> <ConfScore>
0.697404 

> <ConfScorePBest>
0.00435918 

> <ConfTolerance>
0.0536361 

$$$$
*****
  PyMOL2.5          3D                             0

 15 14  0  0  0  0  0  0  0  0999 V2000
    4.2941    5.8267    0.4318 C   0  0  0  1  0  0  0  0  0  0  0  0
    3.2234    6.2368   -0.4337 C   0  0  0  1  0  0  0  0  0  0  0  0
    4.2099    5.9279    1.6402 O   0  0  0  1  0  0  0  0  0  0  0  0
    2.0272    6.7941   -0.2303 C   0  0  0  1  0  0  0  0  0  0  0  0
    5.3375    5.3485   -0.1817 O   0  0  0  1  0  0  0  0  0  0  0  0
    0.9142    6.4769   -1.1908 C   0  0  0  1  0  0  0  0  0  0  0  0
    0.4783    7.6258   -2.0854 C   0  0  0  1  0  0  0  0  0  0  0  0
    3.4239    6.0612   -1.4389 H   0  0  0  1  0  0  0  0  0  0  0  0
    1.8686    7.4335    0.5745 H   0  0  0  1  0  0  0  0  0  0  0  0
    5.3804    4.3988   -0.0480 H   0  0  0  1  0  0  0  0  0  0  0  0
    0.0654    6.1625   -0.6201 H   0  0  0  1  0  0  0  0  0  0  0  0
    1.2392    5.6742   -1.8192 H   0  0  0  1  0  0  0  0  0  0  0  0
    0.0070    7.2359   -2.9634 H   0  0  0  1  0  0  0  0  0  0  0  0
    1.3342    8.2029   -2.3668 H   0  0  0  1  0  0  0  0  0  0  0  0
   -0.2132    8.2473   -1.5558 H   0  0  0  1  0  0  0  0  0  0  0  0
  1  2  1  0  0  0  0
  1  3  2  0  0  0  0
  1  5  1  0  0  0  0
  2  4  2  0  0  0  0
  2  8  1  0  0  0  0
  4  6  1  0  0  0  0
  4  9  1  0  0  0  0
  5 10  1  0  0  0  0
  6  7  1  0  0  0  0
  6 11  1  0  0  0  0
  6 12  1  0  0  0  0
  7 13  1  0  0  0  0
  7 14  1  0  0  0  0
  7 15  1  0  0  0  0
M  END
> <ConfClashScore>
0 

> <ConfOneFourInteractionScore>
-0.989347 

> <ConfScore>
0.700145 

> <ConfScorePBest>
0.0043307 

> <ConfTolerance>
0.0745228 

$$$$
*****
  PyMOL2.5          3D                             0

 15 14  0  0  0  0  0  0  0  0999 V2000
    4.1626    5.6184    0.5960 C   0  0  0  1  0  0  0  0  0  0  0  0
    3.2161    6.0077   -0.4423 C   0  0  0  1  0  0  0  0  0  0  0  0
    3.9445    5.7340    1.7862 O   0  0  0  1  0  0  0  0  0  0  0  0
    2.1427    6.7356   -0.2610 C   0  0  0  1  0  0  0  0  0  0  0  0
    5.2910    5.1234    0.1261 O   0  0  0  1  0  0  0  0  0  0  0  0
    0.8553    6.6625   -1.0377 C   0  0  0  1  0  0  0  0  0  0  0  0
    0.8847    5.6186   -2.1422 C   0  0  0  1  0  0  0  0  0  0  0  0
    3.4099    5.6792   -1.4098 H   0  0  0  1  0  0  0  0  0  0  0  0
    2.1842    7.4406    0.5024 H   0  0  0  1  0  0  0  0  0  0  0  0
    5.4728    5.5029   -0.7367 H   0  0  0  1  0  0  0  0  0  0  0  0
    0.6687    7.6195   -1.4785 H   0  0  0  1  0  0  0  0  0  0  0  0
    0.0626    6.4202   -0.3611 H   0  0  0  1  0  0  0  0  0  0  0  0
    1.6989    5.8234   -2.8056 H   0  0  0  1  0  0  0  0  0  0  0  0
   -0.0356    5.6502   -2.6871 H   0  0  0  1  0  0  0  0  0  0  0  0
    1.0116    4.6474   -1.7114 H   0  0  0  1  0  0  0  0  0  0  0  0
  1  2  1  0  0  0  0
  1  3  2  0  0  0  0
  1  5  1  0  0  0  0
  2  4  2  0  0  0  0
  2  8  1  0  0  0  0
  4  6  1  0  0  0  0
  4  9  1  0  0  0  0
  5 10  1  0  0  0  0
  6  7  1  0  0  0  0
  6 11  1  0  0  0  0
  6 12  1  0  0  0  0
  7 13  1  0  0  0  0
  7 14  1  0  0  0  0
  7 15  1  0  0  0  0
M  END
> <ConfClashScore>
0 

> <ConfOneFourInteractionScore>
-0.971698 

> <ConfScore>
0.700447 

> <ConfScorePBest>
0.00430222 

> <ConfTolerance>
0.0385287 

$$$$
*****
  PyMOL2.5          3D                             0

 15 14  0  0  0  0  0  0  0  0999 V2000
    4.2065    5.6629    0.4845 C   0  0  0  1  0  0  0  0  0  0  0  0
    3.1580    6.0622   -0.4501 C   0  0  0  1  0  0  0  0  0  0  0  0
    4.2199    6.1681    1.6216 O   0  0  0  1  0  0  0  0  0  0  0  0
    2.0600    6.7624   -0.2610 C   0  0  0  1  0  0  0  0  0  0  0  0
    5.0836    4.8066    0.1147 O   0  0  0  1  0  0  0  0  0  0  0  0
    0.8107    6.5591   -1.0580 C   0  0  0  1  0  0  0  0  0  0  0  0
   -0.0271    5.3909   -0.5642 C   0  0  0  1  0  0  0  0  0  0  0  0
    3.3031    5.7394   -1.4280 H   0  0  0  1  0  0  0  0  0  0  0  0
    2.0609    7.4931    0.4790 H   0  0  0  1  0  0  0  0  0  0  0  0
    5.7765    5.2506   -0.3795 H   0  0  0  1  0  0  0  0  0  0  0  0
    1.0825    6.3767   -2.0767 H   0  0  0  1  0  0  0  0  0  0  0  0
    0.2209    7.4499   -0.9998 H   0  0  0  1  0  0  0  0  0  0  0  0
    0.5250    4.4816   -0.6792 H   0  0  0  1  0  0  0  0  0  0  0  0
   -0.9305    5.3339   -1.1348 H   0  0  0  1  0  0  0  0  0  0  0  0
   -0.2655    5.5349    0.4689 H   0  0  0  1  0  0  0  0  0  0  0  0
  1  2  1  0  0  0  0
  1  3  2  0  0  0  0
  1  5  1  0  0  0  0
  2  4  2  0  0  0  0
  2  8  1  0  0  0  0
  4  6  1  0  0  0  0
  4  9  1  0  0  0  0
  5 10  1  0  0  0  0
  6  7  1  0  0  0  0
  6 11  1  0  0  0  0
  6 12  1  0  0  0  0
  7 13  1  0  0  0  0
  7 14  1  0  0  0  0
  7 15  1  0  0  0  0
M  END
> <ConfClashScore>
0 

> <ConfOneFourInteractionScore>
-0.989347 

> <ConfScore>
0.701168 

> <ConfScorePBest>
0.00427374 

> <ConfTolerance>
0.0504151 

$$$$
*****
  PyMOL2.5          3D                             0

 15 14  0  0  0  0  0  0  0  0999 V2000
    4.2326    5.5117    0.4335 C   0  0  0  1  0  0  0  0  0  0  0  0
    3.2088    6.4260   -0.0647 C   0  0  0  1  0  0  0  0  0  0  0  0
    3.8838    4.3632    0.7616 O   0  0  0  1  0  0  0  0  0  0  0  0
    1.9766    6.1988   -0.4666 C   0  0  0  1  0  0  0  0  0  0  0  0
    5.4155    5.9544    0.4980 O   0  0  0  1  0  0  0  0  0  0  0  0
    1.2908    7.0199   -1.5120 C   0  0  0  1  0  0  0  0  0  0  0  0
   -0.0566    7.5573   -1.0579 C   0  0  0  1  0  0  0  0  0  0  0  0
    3.5025    7.4227   -0.1093 H   0  0  0  1  0  0  0  0  0  0  0  0
    1.4538    5.4095   -0.0362 H   0  0  0  1  0  0  0  0  0  0  0  0
    5.7149    6.1980   -0.3810 H   0  0  0  1  0  0  0  0  0  0  0  0
    1.1401    6.4109   -2.3787 H   0  0  0  1  0  0  0  0  0  0  0  0
    1.9208    7.8478   -1.7623 H   0  0  0  1  0  0  0  0  0  0  0  0
   -0.8395    7.0323   -1.5642 H   0  0  0  1  0  0  0  0  0  0  0  0
   -0.1202    8.6003   -1.2879 H   0  0  0  1  0  0  0  0  0  0  0  0
   -0.1586    7.4175   -0.0020 H   0  0  0  1  0  0  0  0  0  0  0  0
  1  2  1  0  0  0  0
  1  3  2  0  0  0  0
  1  5  1  0  0  0  0
  2  4  2  0  0  0  0
  2  8  1  0  0  0  0
  4  6  1  0  0  0  0
  4  9  1  0  0  0  0
  5 10  1  0  0  0  0
  6  7  1  0  0  0  0
  6 11  1  0  0  0  0
  6 12  1  0  0  0  0
  7 13  1  0  0  0  0
  7 14  1  0  0  0  0
  7 15  1  0  0  0  0
M  END
> <ConfClashScore>
0 

> <ConfOneFourInteractionScore>
-0.989347 

> <ConfScore>
0.705649 

> <ConfScorePBest>
0.00424526 

> <ConfTolerance>
0.0494877 

$$$$
*****
  PyMOL2.5          3D                             0

 15 14  0  0  0  0  0  0  0  0999 V2000
    4.2299    5.7181    0.5603 C   0  0  0  1  0  0  0  0  0  0  0  0
    3.3049    6.3001   -0.4073 C   0  0  0  1  0  0  0  0  0  0  0  0
    3.8997    5.4545    1.7001 O   0  0  0  1  0  0  0  0  0  0  0  0
    2.0459    6.6120   -0.2272 C   0  0  0  1  0  0  0  0  0  0  0  0
    5.4180    5.5271    0.0490 O   0  0  0  1  0  0  0  0  0  0  0  0
    0.9585    6.5997   -1.2542 C   0  0  0  1  0  0  0  0  0  0  0  0
   -0.1986    7.5490   -0.9892 C   0  0  0  1  0  0  0  0  0  0  0  0
    3.6924    6.4900   -1.3535 H   0  0  0  1  0  0  0  0  0  0  0  0
    1.7724    6.8993    0.7342 H   0  0  0  1  0  0  0  0  0  0  0  0
    5.3574    4.9036   -0.6784 H   0  0  0  1  0  0  0  0  0  0  0  0
    0.5650    5.6061   -1.3063 H   0  0  0  1  0  0  0  0  0  0  0  0
    1.3917    6.8622   -2.1967 H   0  0  0  1  0  0  0  0  0  0  0  0
   -0.8794    7.5214   -1.8143 H   0  0  0  1  0  0  0  0  0  0  0  0
    0.1767    8.5439   -0.8700 H   0  0  0  1  0  0  0  0  0  0  0  0
   -0.7077    7.2501   -0.0969 H   0  0  0  1  0  0  0  0  0  0  0  0
  1  2  1  0  0  0  0
  1  3  2  0  0  0  0
  1  5  1  0  0  0  0
  2  4  2  0  0  0  0
  2  8  1  0  0  0  0
  4  6  1  0  0  0  0
  4  9  1  0  0  0  0
  5 10  1  0  0  0  0
  6  7  1  0  0  0  0
  6 11  1  0  0  0  0
  6 12  1  0  0  0  0
  7 13  1  0  0  0  0
  7 14  1  0  0  0  0
  7 15  1  0  0  0  0
M  END
> <ConfClashScore>
0 

> <ConfOneFourInteractionScore>
-0.965547 

> <ConfScore>
0.705744 

> <ConfScorePBest>
0.00421678 

> <ConfTolerance>
0.0554593 

$$$$
*****
  PyMOL2.5          3D                             0

 15 14  0  0  0  0  0  0  0  0999 V2000
    4.2190    5.6126    0.5352 C   0  0  0  1  0  0  0  0  0  0  0  0
    3.2374    6.1331   -0.4122 C   0  0  0  1  0  0  0  0  0  0  0  0
    4.1032    5.9289    1.7331 O   0  0  0  1  0  0  0  0  0  0  0  0
    2.0558    6.7258   -0.2078 C   0  0  0  1  0  0  0  0  0  0  0  0
    5.1289    4.8684    0.0685 O   0  0  0  1  0  0  0  0  0  0  0  0
    0.9310    6.5871   -1.1986 C   0  0  0  1  0  0  0  0  0  0  0  0
    0.6912    7.8512   -2.0079 C   0  0  0  1  0  0  0  0  0  0  0  0
    3.5007    6.0249   -1.4125 H   0  0  0  1  0  0  0  0  0  0  0  0
    1.9115    7.2932    0.6518 H   0  0  0  1  0  0  0  0  0  0  0  0
    5.5916    5.3303   -0.6344 H   0  0  0  1  0  0  0  0  0  0  0  0
    0.0346    6.3491   -0.6650 H   0  0  0  1  0  0  0  0  0  0  0  0
    1.1675    5.7907   -1.8729 H   0  0  0  1  0  0  0  0  0  0  0  0
   -0.2150    8.3175   -1.6818 H   0  0  0  1  0  0  0  0  0  0  0  0
    0.6098    7.6004   -3.0449 H   0  0  0  1  0  0  0  0  0  0  0  0
    1.5099    8.5255   -1.8667 H   0  0  0  1  0  0  0  0  0  0  0  0
  1  2  1  0  0  0  0
  1  3  2  0  0  0  0
  1  5  1  0  0  0  0
  2  4  2  0  0  0  0
  2  8  1  0  0  0  0
  4  6  1  0  0  0  0
  4  9  1  0  0  0  0
  5 10  1  0  0  0  0
  6  7  1  0  0  0  0
  6 11  1  0  0  0  0
  6 12  1  0  0  0  0
  7 13  1  0  0  0  0
  7 14  1  0  0  0  0
  7 15  1  0  0  0  0
M  END
> <ConfClashScore>
0 

> <ConfOneFourInteractionScore>
-0.989347 

> <ConfScore>
0.706923 

> <ConfScorePBest>
0.0041883 

> <ConfTolerance>
0.0864937 

$$$$
*****
  PyMOL2.5          3D                             0

 15 14  0  0  0  0  0  0  0  0999 V2000
    4.1655    5.6351    0.5636 C   0  0  0  1  0  0  0  0  0  0  0  0
    3.1937    6.0157   -0.4568 C   0  0  0  1  0  0  0  0  0  0  0  0
    3.9838    5.8877    1.7482 O   0  0  0  1  0  0  0  0  0  0  0  0
    2.1295    6.6679   -0.3028 C   0  0  0  1  0  0  0  0  0  0  0  0
    5.2176    5.0176    0.1103 O   0  0  0  1  0  0  0  0  0  0  0  0
    0.7880    6.6935   -0.9852 C   0  0  0  1  0  0  0  0  0  0  0  0
    0.5711    7.9414   -1.8255 C   0  0  0  1  0  0  0  0  0  0  0  0
    3.4069    5.7108   -1.4279 H   0  0  0  1  0  0  0  0  0  0  0  0
    2.1906    7.3498    0.4800 H   0  0  0  1  0  0  0  0  0  0  0  0
    5.6037    5.5262   -0.6064 H   0  0  0  1  0  0  0  0  0  0  0  0
    0.0243    6.6498   -0.2370 H   0  0  0  1  0  0  0  0  0  0  0  0
    0.7135    5.8368   -1.6220 H   0  0  0  1  0  0  0  0  0  0  0  0
   -0.2774    8.4781   -1.4556 H   0  0  0  1  0  0  0  0  0  0  0  0
    0.3988    7.6601   -2.8434 H   0  0  0  1  0  0  0  0  0  0  0  0
    1.4392    8.5643   -1.7691 H   0  0  0  1  0  0  0  0  0  0  0  0
  1  2  1  0  0  0  0
  1  3  2  0  0  0  0
  1  5  1  0  0  0  0
  2  4  2  0  0  0  0
  2  8  1  0  0  0  0
  4  6  1  0  0  0  0
  4  9  1  0  0  0  0
  5 10  1  0  0  0  0
  6  7  1  0  0  0  0
  6 11  1  0  0  0  0
  6 12  1  0  0  0  0
  7 13  1  0  0  0  0
  7 14  1  0  0  0  0
  7 15  1  0  0  0  0
M  END
> <ConfClashScore>
0 

> <ConfOneFourInteractionScore>
-0.989347 

> <ConfScore>
0.706923 

> <ConfScorePBest>
0.00415982 

> <ConfTolerance>
0.0835713 

$$$$
*****
  PyMOL2.5          3D                             0

 15 14  0  0  0  0  0  0  0  0999 V2000
    4.3136    5.8569    0.3943 C   0  0  0  1  0  0  0  0  0  0  0  0
    3.2133    6.1566   -0.5167 C   0  0  0  1  0  0  0  0  0  0  0  0
    4.1751    6.1462    1.5966 O   0  0  0  1  0  0  0  0  0  0  0  0
    2.0898    6.8190   -0.2495 C   0  0  0  1  0  0  0  0  0  0  0  0
    5.3428    5.3183   -0.1060 O   0  0  0  1  0  0  0  0  0  0  0  0
    0.8402    6.4559   -1.0127 C   0  0  0  1  0  0  0  0  0  0  0  0
    0.2622    5.1440   -0.5075 C   0  0  0  1  0  0  0  0  0  0  0  0
    3.3197    5.8112   -1.4919 H   0  0  0  1  0  0  0  0  0  0  0  0
    2.0739    7.5702    0.4696 H   0  0  0  1  0  0  0  0  0  0  0  0
    5.3108    4.3699    0.0394 H   0  0  0  1  0  0  0  0  0  0  0  0
    1.0794    6.3572   -2.0509 H   0  0  0  1  0  0  0  0  0  0  0  0
    0.1138    7.2313   -0.8858 H   0  0  0  1  0  0  0  0  0  0  0  0
   -0.6443    4.9272   -1.0331 H   0  0  0  1  0  0  0  0  0  0  0  0
    0.0566    5.2248    0.5394 H   0  0  0  1  0  0  0  0  0  0  0  0
    0.9674    4.3565   -0.6733 H   0  0  0  1  0  0  0  0  0  0  0  0
  1  2  1  0  0  0  0
  1  3  2  0  0  0  0
  1  5  1  0  0  0  0
  2  4  2  0  0  0  0
  2  8  1  0  0  0  0
  4  6  1  0  0  0  0
  4  9  1  0  0  0  0
  5 10  1  0  0  0  0
  6  7  1  0  0  0  0
  6 11  1  0  0  0  0
  6 12  1  0  0  0  0
  7 13  1  0  0  0  0
  7 14  1  0  0  0  0
  7 15  1  0  0  0  0
M  END
> <ConfClashScore>
0 

> <ConfOneFourInteractionScore>
-0.981881 

> <ConfScore>
0.709302 

> <ConfScorePBest>
0.00413134 

> <ConfTolerance>
0.0868584 

$$$$
*****
  PyMOL2.5          3D                             0

 15 14  0  0  0  0  0  0  0  0999 V2000
    4.1934    5.6438    0.5254 C   0  0  0  1  0  0  0  0  0  0  0  0
    3.1957    6.0194   -0.4690 C   0  0  0  1  0  0  0  0  0  0  0  0
    4.0337    6.0385    1.6947 O   0  0  0  1  0  0  0  0  0  0  0  0
    2.1203    6.7422   -0.2397 C   0  0  0  1  0  0  0  0  0  0  0  0
    5.1624    4.9353    0.1273 O   0  0  0  1  0  0  0  0  0  0  0  0
    0.8389    6.5807   -1.0104 C   0  0  0  1  0  0  0  0  0  0  0  0
   -0.4277    6.9415   -0.2515 C   0  0  0  1  0  0  0  0  0  0  0  0
    3.3469    5.6878   -1.4430 H   0  0  0  1  0  0  0  0  0  0  0  0
    2.1583    7.4606    0.5114 H   0  0  0  1  0  0  0  0  0  0  0  0
    5.6296    5.3960   -0.5735 H   0  0  0  1  0  0  0  0  0  0  0  0
    0.7623    5.5572   -1.3128 H   0  0  0  1  0  0  0  0  0  0  0  0
    0.8939    7.2060   -1.8770 H   0  0  0  1  0  0  0  0  0  0  0  0
   -0.5062    6.3304    0.6233 H   0  0  0  1  0  0  0  0  0  0  0  0
   -1.2785    6.7764   -0.8791 H   0  0  0  1  0  0  0  0  0  0  0  0
   -0.3901    7.9716    0.0355 H   0  0  0  1  0  0  0  0  0  0  0  0
  1  2  1  0  0  0  0
  1  3  2  0  0  0  0
  1  5  1  0  0  0  0
  2  4  2  0  0  0  0
  2  8  1  0  0  0  0
  4  6  1  0  0  0  0
  4  9  1  0  0  0  0
  5 10  1  0  0  0  0
  6  7  1  0  0  0  0
  6 11  1  0  0  0  0
  6 12  1  0  0  0  0
  7 13  1  0  0  0  0
  7 14  1  0  0  0  0
  7 15  1  0  0  0  0
M  END
> <ConfClashScore>
0 

> <ConfOneFourInteractionScore>
-0.989347 

> <ConfScore>
0.709409 

> <ConfScorePBest>
0.00410286 

> <ConfTolerance>
0.0518958 

$$$$
*****
  PyMOL2.5          3D                             0

 15 14  0  0  0  0  0  0  0  0999 V2000
    4.2206    5.6428    0.6093 C   0  0  0  1  0  0  0  0  0  0  0  0
    3.2829    6.1860   -0.3694 C   0  0  0  1  0  0  0  0  0  0  0  0
    3.9143    5.4500    1.7612 O   0  0  0  1  0  0  0  0  0  0  0  0
    2.0872    6.7126   -0.2129 C   0  0  0  1  0  0  0  0  0  0  0  0
    5.3882    5.4047    0.0862 O   0  0  0  1  0  0  0  0  0  0  0  0
    1.0104    6.6234   -1.2472 C   0  0  0  1  0  0  0  0  0  0  0  0
    1.3824    5.8657   -2.5113 C   0  0  0  1  0  0  0  0  0  0  0  0
    3.6155    6.1509   -1.3542 H   0  0  0  1  0  0  0  0  0  0  0  0
    1.8806    7.2155    0.6737 H   0  0  0  1  0  0  0  0  0  0  0  0
    5.2794    5.1183   -0.8236 H   0  0  0  1  0  0  0  0  0  0  0  0
    0.7387    7.6197   -1.5275 H   0  0  0  1  0  0  0  0  0  0  0  0
    0.1677    6.1343   -0.8051 H   0  0  0  1  0  0  0  0  0  0  0  0
    2.1105    6.4243   -3.0614 H   0  0  0  1  0  0  0  0  0  0  0  0
    0.5092    5.7276   -3.1140 H   0  0  0  1  0  0  0  0  0  0  0  0
    1.7894    4.9117   -2.2482 H   0  0  0  1  0  0  0  0  0  0  0  0
  1  2  1  0  0  0  0
  1  3  2  0  0  0  0
  1  5  1  0  0  0  0
  2  4  2  0  0  0  0
  2  8  1  0  0  0  0
  4  6  1  0  0  0  0
  4  9  1  0  0  0  0
  5 10  1  0  0  0  0
  6  7  1  0  0  0  0
  6 11  1  0  0  0  0
  6 12  1  0  0  0  0
  7 13  1  0  0  0  0
  7 14  1  0  0  0  0
  7 15  1  0  0  0  0
M  END
> <ConfClashScore>
0 

> <ConfOneFourInteractionScore>
-0.971698 

> <ConfScore>
0.709447 

> <ConfScorePBest>
0.00407438 

> <ConfTolerance>
0.0808569 

$$$$
*****
  PyMOL2.5          3D                             0

 15 14  0  0  0  0  0  0  0  0999 V2000
    4.2058    5.5895    0.5567 C   0  0  0  1  0  0  0  0  0  0  0  0
    3.3235    6.3712   -0.3042 C   0  0  0  1  0  0  0  0  0  0  0  0
    3.8068    5.0951    1.6038 O   0  0  0  1  0  0  0  0  0  0  0  0
    2.0175    6.4727   -0.2370 C   0  0  0  1  0  0  0  0  0  0  0  0
    5.4259    5.4690    0.1202 O   0  0  0  1  0  0  0  0  0  0  0  0
    1.1104    6.7058   -1.4155 C   0  0  0  1  0  0  0  0  0  0  0  0
    1.8183    6.5500   -2.7516 C   0  0  0  1  0  0  0  0  0  0  0  0
    3.7860    6.9128   -1.0621 H   0  0  0  1  0  0  0  0  0  0  0  0
    1.5757    6.3857    0.7005 H   0  0  0  1  0  0  0  0  0  0  0  0
    5.4277    5.5023   -0.8392 H   0  0  0  1  0  0  0  0  0  0  0  0
    0.7178    7.6991   -1.3519 H   0  0  0  1  0  0  0  0  0  0  0  0
    0.3069    6.0006   -1.3716 H   0  0  0  1  0  0  0  0  0  0  0  0
    1.1190    6.7052   -3.5465 H   0  0  0  1  0  0  0  0  0  0  0  0
    2.2284    5.5645   -2.8249 H   0  0  0  1  0  0  0  0  0  0  0  0
    2.6058    7.2708   -2.8239 H   0  0  0  1  0  0  0  0  0  0  0  0
  1  2  1  0  0  0  0
  1  3  2  0  0  0  0
  1  5  1  0  0  0  0
  2  4  2  0  0  0  0
  2  8  1  0  0  0  0
  4  6  1  0  0  0  0
  4  9  1  0  0  0  0
  5 10  1  0  0  0  0
  6  7  1  0  0  0  0
  6 11  1  0  0  0  0
  6 12  1  0  0  0  0
  7 13  1  0  0  0  0
  7 14  1  0  0  0  0
  7 15  1  0  0  0  0
M  END
> <ConfClashScore>
0 

> <ConfOneFourInteractionScore>
-0.971698 

> <ConfScore>
0.709447 

> <ConfScorePBest>
0.00404589 

> <ConfTolerance>
0.0375981 

$$$$
*****
  PyMOL2.5          3D                             0

 15 14  0  0  0  0  0  0  0  0999 V2000
    4.2462    5.7597    0.5344 C   0  0  0  1  0  0  0  0  0  0  0  0
    3.2864    6.2646   -0.4426 C   0  0  0  1  0  0  0  0  0  0  0  0
    3.9477    5.6158    1.7040 O   0  0  0  1  0  0  0  0  0  0  0  0
    2.0547    6.6552   -0.2302 C   0  0  0  1  0  0  0  0  0  0  0  0
    5.4224    5.4845    0.0503 O   0  0  0  1  0  0  0  0  0  0  0  0
    0.8980    6.5708   -1.1898 C   0  0  0  1  0  0  0  0  0  0  0  0
   -0.4461    7.1020   -0.7192 C   0  0  0  1  0  0  0  0  0  0  0  0
    3.6210    6.3208   -1.4257 H   0  0  0  1  0  0  0  0  0  0  0  0
    1.8539    7.0687    0.7027 H   0  0  0  1  0  0  0  0  0  0  0  0
    5.3489    4.7643   -0.5801 H   0  0  0  1  0  0  0  0  0  0  0  0
    0.7646    5.5391   -1.4404 H   0  0  0  1  0  0  0  0  0  0  0  0
    1.1695    7.1192   -2.0675 H   0  0  0  1  0  0  0  0  0  0  0  0
   -0.3648    8.1494   -0.5157 H   0  0  0  1  0  0  0  0  0  0  0  0
   -0.7405    6.5877    0.1717 H   0  0  0  1  0  0  0  0  0  0  0  0
   -1.1792    6.9430   -1.4822 H   0  0  0  1  0  0  0  0  0  0  0  0
  1  2  1  0  0  0  0
  1  3  2  0  0  0  0
  1  5  1  0  0  0  0
  2  4  2  0  0  0  0
  2  8  1  0  0  0  0
  4  6  1  0  0  0  0
  4  9  1  0  0  0  0
  5 10  1  0  0  0  0
  6  7  1  0  0  0  0
  6 11  1  0  0  0  0
  6 12  1  0  0  0  0
  7 13  1  0  0  0  0
  7 14  1  0  0  0  0
  7 15  1  0  0  0  0
M  END
> <ConfClashScore>
0 

> <ConfOneFourInteractionScore>
-0.954894 

> <ConfScore>
0.710377 

> <ConfScorePBest>
0.00401741 

> <ConfTolerance>
0.0486324 

$$$$
*****
  PyMOL2.5          3D                             0

 15 14  0  0  0  0  0  0  0  0999 V2000
    4.1587    5.6728    0.4931 C   0  0  0  1  0  0  0  0  0  0  0  0
    3.1231    5.8769   -0.5207 C   0  0  0  1  0  0  0  0  0  0  0  0
    3.9798    6.1312    1.6286 O   0  0  0  1  0  0  0  0  0  0  0  0
    2.1533    6.7062   -0.3077 C   0  0  0  1  0  0  0  0  0  0  0  0
    5.2207    5.0280    0.1839 O   0  0  0  1  0  0  0  0  0  0  0  0
    0.7439    6.6728   -0.8073 C   0  0  0  1  0  0  0  0  0  0  0  0
   -0.0589    7.8999   -0.4071 C   0  0  0  1  0  0  0  0  0  0  0  0
    3.1671    5.3523   -1.4175 H   0  0  0  1  0  0  0  0  0  0  0  0
    2.3885    7.5159    0.3010 H   0  0  0  1  0  0  0  0  0  0  0  0
    5.7441    5.5481   -0.4303 H   0  0  0  1  0  0  0  0  0  0  0  0
    0.2615    5.8051   -0.4081 H   0  0  0  1  0  0  0  0  0  0  0  0
    0.7625    6.6115   -1.8754 H   0  0  0  1  0  0  0  0  0  0  0  0
   -0.9823    7.9145   -0.9476 H   0  0  0  1  0  0  0  0  0  0  0  0
    0.5015    8.7824   -0.6350 H   0  0  0  1  0  0  0  0  0  0  0  0
   -0.2612    7.8665    0.6431 H   0  0  0  1  0  0  0  0  0  0  0  0
  1  2  1  0  0  0  0
  1  3  2  0  0  0  0
  1  5  1  0  0  0  0
  2  4  2  0  0  0  0
  2  8  1  0  0  0  0
  4  6  1  0  0  0  0
  4  9  1  0  0  0  0
  5 10  1  0  0  0  0
  6  7  1  0  0  0  0
  6 11  1  0  0  0  0
  6 12  1  0  0  0  0
  7 13  1  0  0  0  0
  7 14  1  0  0  0  0
  7 15  1  0  0  0  0
M  END
> <ConfClashScore>
0 

> <ConfOneFourInteractionScore>
-0.965547 

> <ConfScore>
0.711651 

> <ConfScorePBest>
0.00398893 

> <ConfTolerance>
0.0984455 

$$$$
*****
  PyMOL2.5          3D                             0

 15 14  0  0  0  0  0  0  0  0999 V2000
    4.1843    5.6209    0.5567 C   0  0  0  1  0  0  0  0  0  0  0  0
    3.2014    6.0491   -0.4339 C   0  0  0  1  0  0  0  0  0  0  0  0
    4.0649    5.9039    1.7423 O   0  0  0  1  0  0  0  0  0  0  0  0
    2.0972    6.7649   -0.2315 C   0  0  0  1  0  0  0  0  0  0  0  0
    5.1753    4.9277    0.0761 O   0  0  0  1  0  0  0  0  0  0  0  0
    0.8802    6.5835   -1.0973 C   0  0  0  1  0  0  0  0  0  0  0  0
   -0.3130    7.4867   -0.8307 C   0  0  0  1  0  0  0  0  0  0  0  0
    3.3858    5.7604   -1.4158 H   0  0  0  1  0  0  0  0  0  0  0  0
    2.0756    7.4624    0.5396 H   0  0  0  1  0  0  0  0  0  0  0  0
    5.6144    5.4315   -0.6131 H   0  0  0  1  0  0  0  0  0  0  0  0
    0.5498    5.5729   -0.9775 H   0  0  0  1  0  0  0  0  0  0  0  0
    1.1821    6.7428   -2.1114 H   0  0  0  1  0  0  0  0  0  0  0  0
   -0.0876    8.4812   -1.1549 H   0  0  0  1  0  0  0  0  0  0  0  0
   -0.5277    7.4935    0.2175 H   0  0  0  1  0  0  0  0  0  0  0  0
   -1.1636    7.1211   -1.3672 H   0  0  0  1  0  0  0  0  0  0  0  0
  1  2  1  0  0  0  0
  1  3  2  0  0  0  0
  1  5  1  0  0  0  0
  2  4  2  0  0  0  0
  2  8  1  0  0  0  0
  4  6  1  0  0  0  0
  4  9  1  0  0  0  0
  5 10  1  0  0  0  0
  6  7  1  0  0  0  0
  6 11  1  0  0  0  0
  6 12  1  0  0  0  0
  7 13  1  0  0  0  0
  7 14  1  0  0  0  0
  7 15  1  0  0  0  0
M  END
> <ConfClashScore>
0 

> <ConfOneFourInteractionScore>
-0.954894 

> <ConfScore>
0.711651 

> <ConfScorePBest>
0.00396045 

> <ConfTolerance>
0.0755 

$$$$
*****
  PyMOL2.5          3D                             0

 15 14  0  0  0  0  0  0  0  0999 V2000
    4.1658    5.6548    0.5095 C   0  0  0  1  0  0  0  0  0  0  0  0
    3.1433    5.9086   -0.4990 C   0  0  0  1  0  0  0  0  0  0  0  0
    3.9680    6.0399    1.6688 O   0  0  0  1  0  0  0  0  0  0  0  0
    2.1489    6.7117   -0.2998 C   0  0  0  1  0  0  0  0  0  0  0  0
    5.2392    5.0426    0.1743 O   0  0  0  1  0  0  0  0  0  0  0  0
    0.7536    6.6675   -0.8609 C   0  0  0  1  0  0  0  0  0  0  0  0
    0.5027    5.7543   -2.0498 C   0  0  0  1  0  0  0  0  0  0  0  0
    3.2166    5.4238   -1.4162 H   0  0  0  1  0  0  0  0  0  0  0  0
    2.3427    7.5055    0.3436 H   0  0  0  1  0  0  0  0  0  0  0  0
    5.7010    5.5499   -0.4973 H   0  0  0  1  0  0  0  0  0  0  0  0
    0.4977    7.6620   -1.1614 H   0  0  0  1  0  0  0  0  0  0  0  0
    0.1014    6.3535   -0.0728 H   0  0  0  1  0  0  0  0  0  0  0  0
    0.7137    4.7423   -1.7737 H   0  0  0  1  0  0  0  0  0  0  0  0
    1.1384    6.0424   -2.8609 H   0  0  0  1  0  0  0  0  0  0  0  0
   -0.5206    5.8354   -2.3518 H   0  0  0  1  0  0  0  0  0  0  0  0
  1  2  1  0  0  0  0
  1  3  2  0  0  0  0
  1  5  1  0  0  0  0
  2  4  2  0  0  0  0
  2  8  1  0  0  0  0
  4  6  1  0  0  0  0
  4  9  1  0  0  0  0
  5 10  1  0  0  0  0
  6  7  1  0  0  0  0
  6 11  1  0  0  0  0
  6 12  1  0  0  0  0
  7 13  1  0  0  0  0
  7 14  1  0  0  0  0
  7 15  1  0  0  0  0
M  END
> <ConfClashScore>
0 

> <ConfOneFourInteractionScore>
-0.971698 

> <ConfScore>
0.712319 

> <ConfScorePBest>
0.00393197 

> <ConfTolerance>
0.0959193 

$$$$
*****
  PyMOL2.5          3D                             0

 15 14  0  0  0  0  0  0  0  0999 V2000
    4.2195    5.5763    0.4398 C   0  0  0  1  0  0  0  0  0  0  0  0
    3.2232    6.4809   -0.1256 C   0  0  0  1  0  0  0  0  0  0  0  0
    3.8436    4.4966    0.9135 O   0  0  0  1  0  0  0  0  0  0  0  0
    1.9679    6.2217   -0.4042 C   0  0  0  1  0  0  0  0  0  0  0  0
    5.4527    5.9186    0.4330 O   0  0  0  1  0  0  0  0  0  0  0  0
    1.1803    6.8700   -1.5112 C   0  0  0  1  0  0  0  0  0  0  0  0
    1.2905    6.0634   -2.7948 C   0  0  0  1  0  0  0  0  0  0  0  0
    3.5476    7.4471   -0.3325 H   0  0  0  1  0  0  0  0  0  0  0  0
    1.4804    5.5157    0.1836 H   0  0  0  1  0  0  0  0  0  0  0  0
    5.7639    5.9773   -0.4733 H   0  0  0  1  0  0  0  0  0  0  0  0
    1.5611    7.8552   -1.6822 H   0  0  0  1  0  0  0  0  0  0  0  0
    0.1520    6.9298   -1.2216 H   0  0  0  1  0  0  0  0  0  0  0  0
    2.3131    5.7967   -2.9624 H   0  0  0  1  0  0  0  0  0  0  0  0
    0.9360    6.6505   -3.6161 H   0  0  0  1  0  0  0  0  0  0  0  0
    0.6999    5.1753   -2.7094 H   0  0  0  1  0  0  0  0  0  0  0  0
  1  2  1  0  0  0  0
  1  3  2  0  0  0  0
  1  5  1  0  0  0  0
  2  4  2  0  0  0  0
  2  8  1  0  0  0  0
  4  6  1  0  0  0  0
  4  9  1  0  0  0  0
  5 10  1  0  0  0  0
  6  7  1  0  0  0  0
  6 11  1  0  0  0  0
  6 12  1  0  0  0  0
  7 13  1  0  0  0  0
  7 14  1  0  0  0  0
  7 15  1  0  0  0  0
M  END
> <ConfClashScore>
0 

> <ConfOneFourInteractionScore>
-0.989347 

> <ConfScore>
0.71414 

> <ConfScorePBest>
0.00390349 

> <ConfTolerance>
0.0480065 

$$$$
*****
  PyMOL2.5          3D                             0

 15 14  0  0  0  0  0  0  0  0999 V2000
    4.1911    5.5358    0.4443 C   0  0  0  1  0  0  0  0  0  0  0  0
    3.2526    6.4829   -0.1455 C   0  0  0  1  0  0  0  0  0  0  0  0
    3.8073    4.5246    0.9933 O   0  0  0  1  0  0  0  0  0  0  0  0
    1.9880    6.2492   -0.3923 C   0  0  0  1  0  0  0  0  0  0  0  0
    5.4301    5.9351    0.3898 O   0  0  0  1  0  0  0  0  0  0  0  0
    1.1541    6.8441   -1.4953 C   0  0  0  1  0  0  0  0  0  0  0  0
    1.4825    6.1942   -2.8296 C   0  0  0  1  0  0  0  0  0  0  0  0
    3.6189    7.4247   -0.3914 H   0  0  0  1  0  0  0  0  0  0  0  0
    1.5077    5.5801    0.2427 H   0  0  0  1  0  0  0  0  0  0  0  0
    5.7293    5.9278   -0.5224 H   0  0  0  1  0  0  0  0  0  0  0  0
    1.3525    7.8937   -1.5581 H   0  0  0  1  0  0  0  0  0  0  0  0
    0.1186    6.6889   -1.2749 H   0  0  0  1  0  0  0  0  0  0  0  0
    2.5282    6.2994   -3.0303 H   0  0  0  1  0  0  0  0  0  0  0  0
    0.9208    6.6705   -3.6058 H   0  0  0  1  0  0  0  0  0  0  0  0
    1.2295    5.1552   -2.7918 H   0  0  0  1  0  0  0  0  0  0  0  0
  1  2  1  0  0  0  0
  1  3  2  0  0  0  0
  1  5  1  0  0  0  0
  2  4  2  0  0  0  0
  2  8  1  0  0  0  0
  4  6  1  0  0  0  0
  4  9  1  0  0  0  0
  5 10  1  0  0  0  0
  6  7  1  0  0  0  0
  6 11  1  0  0  0  0
  6 12  1  0  0  0  0
  7 13  1  0  0  0  0
  7 14  1  0  0  0  0
  7 15  1  0  0  0  0
M  END
> <ConfClashScore>
0 

> <ConfOneFourInteractionScore>
-0.989347 

> <ConfScore>
0.71414 

> <ConfScorePBest>
0.00387501 

> <ConfTolerance>
0.0631592 

$$$$
*****
  PyMOL2.5          3D                             0

 15 14  0  0  0  0  0  0  0  0999 V2000
    4.1771    5.6459    0.5224 C   0  0  0  1  0  0  0  0  0  0  0  0
    3.1608    5.9763   -0.4718 C   0  0  0  1  0  0  0  0  0  0  0  0
    3.9925    5.9839    1.6985 O   0  0  0  1  0  0  0  0  0  0  0  0
    2.1258    6.6731   -0.3142 C   0  0  0  1  0  0  0  0  0  0  0  0
    5.2310    5.0173    0.1572 O   0  0  0  1  0  0  0  0  0  0  0  0
    0.7495    6.6886   -0.9236 C   0  0  0  1  0  0  0  0  0  0  0  0
   -0.2991    6.0288   -0.0429 C   0  0  0  1  0  0  0  0  0  0  0  0
    3.3105    5.5888   -1.4252 H   0  0  0  1  0  0  0  0  0  0  0  0
    2.2501    7.4125    0.4066 H   0  0  0  1  0  0  0  0  0  0  0  0
    5.6819    5.5178   -0.5268 H   0  0  0  1  0  0  0  0  0  0  0  0
    0.7850    6.1690   -1.8583 H   0  0  0  1  0  0  0  0  0  0  0  0
    0.4625    7.7057   -1.0910 H   0  0  0  1  0  0  0  0  0  0  0  0
   -0.2822    6.4764    0.9289 H   0  0  0  1  0  0  0  0  0  0  0  0
   -0.0865    4.9836    0.0423 H   0  0  0  1  0  0  0  0  0  0  0  0
   -1.2666    6.1621   -0.4799 H   0  0  0  1  0  0  0  0  0  0  0  0
  1  2  1  0  0  0  0
  1  3  2  0  0  0  0
  1  5  1  0  0  0  0
  2  4  2  0  0  0  0
  2  8  1  0  0  0  0
  4  6  1  0  0  0  0
  4  9  1  0  0  0  0
  5 10  1  0  0  0  0
  6  7  1  0  0  0  0
  6 11  1  0  0  0  0
  6 12  1  0  0  0  0
  7 13  1  0  0  0  0
  7 14  1  0  0  0  0
  7 15  1  0  0  0  0
M  END
> <ConfClashScore>
0 

> <ConfOneFourInteractionScore>
-0.989347 

> <ConfScore>
0.715414 

> <ConfScorePBest>
0.00384653 

> <ConfTolerance>
0.0831857 

$$$$
*****
  PyMOL2.5          3D                             0

 15 14  0  0  0  0  0  0  0  0999 V2000
    4.2073    5.6447    0.5317 C   0  0  0  1  0  0  0  0  0  0  0  0
    3.2318    6.1058   -0.4514 C   0  0  0  1  0  0  0  0  0  0  0  0
    4.0782    6.0226    1.7030 O   0  0  0  1  0  0  0  0  0  0  0  0
    2.0870    6.7058   -0.2280 C   0  0  0  1  0  0  0  0  0  0  0  0
    5.1267    4.8830    0.1146 O   0  0  0  1  0  0  0  0  0  0  0  0
    0.8691    6.5902   -1.1051 C   0  0  0  1  0  0  0  0  0  0  0  0
   -0.1415    5.5782   -0.5904 C   0  0  0  1  0  0  0  0  0  0  0  0
    3.4735    5.9384   -1.4490 H   0  0  0  1  0  0  0  0  0  0  0  0
    2.0154    7.3061    0.6182 H   0  0  0  1  0  0  0  0  0  0  0  0
    5.5903    5.3077   -0.6108 H   0  0  0  1  0  0  0  0  0  0  0  0
    1.1814    6.2919   -2.0841 H   0  0  0  1  0  0  0  0  0  0  0  0
    0.3952    7.5481   -1.1578 H   0  0  0  1  0  0  0  0  0  0  0  0
    0.3583    4.6614   -0.3570 H   0  0  0  1  0  0  0  0  0  0  0  0
   -0.8814    5.3993   -1.3424 H   0  0  0  1  0  0  0  0  0  0  0  0
   -0.6128    5.9615    0.2904 H   0  0  0  1  0  0  0  0  0  0  0  0
  1  2  1  0  0  0  0
  1  3  2  0  0  0  0
  1  5  1  0  0  0  0
  2  4  2  0  0  0  0
  2  8  1  0  0  0  0
  4  6  1  0  0  0  0
  4  9  1  0  0  0  0
  5 10  1  0  0  0  0
  6  7  1  0  0  0  0
  6 11  1  0  0  0  0
  6 12  1  0  0  0  0
  7 13  1  0  0  0  0
  7 14  1  0  0  0  0
  7 15  1  0  0  0  0
M  END
> <ConfClashScore>
0 

> <ConfOneFourInteractionScore>
-0.989347 

> <ConfScore>
0.715414 

> <ConfScorePBest>
0.00381805 

> <ConfTolerance>
0.0460303 

$$$$
*****
  PyMOL2.5          3D                             0

 15 14  0  0  0  0  0  0  0  0999 V2000
    4.1527    5.6567    0.5598 C   0  0  0  1  0  0  0  0  0  0  0  0
    3.1945    5.9929   -0.4870 C   0  0  0  1  0  0  0  0  0  0  0  0
    4.0076    5.9595    1.7376 O   0  0  0  1  0  0  0  0  0  0  0  0
    2.1308    6.7235   -0.2646 C   0  0  0  1  0  0  0  0  0  0  0  0
    5.2030    4.9896    0.1228 O   0  0  0  1  0  0  0  0  0  0  0  0
    0.8154    6.6392   -0.9716 C   0  0  0  1  0  0  0  0  0  0  0  0
   -0.2023    5.7829   -0.2357 C   0  0  0  1  0  0  0  0  0  0  0  0
    3.3629    5.6376   -1.4498 H   0  0  0  1  0  0  0  0  0  0  0  0
    2.2092    7.4402    0.4850 H   0  0  0  1  0  0  0  0  0  0  0  0
    5.6030    5.4651   -0.6090 H   0  0  0  1  0  0  0  0  0  0  0  0
    0.9767    6.2181   -1.9420 H   0  0  0  1  0  0  0  0  0  0  0  0
    0.4191    7.6279   -1.0727 H   0  0  0  1  0  0  0  0  0  0  0  0
   -1.0761    5.6663   -0.8422 H   0  0  0  1  0  0  0  0  0  0  0  0
   -0.4684    6.2581    0.6853 H   0  0  0  1  0  0  0  0  0  0  0  0
    0.2213    4.8216   -0.0323 H   0  0  0  1  0  0  0  0  0  0  0  0
  1  2  1  0  0  0  0
  1  3  2  0  0  0  0
  1  5  1  0  0  0  0
  2  4  2  0  0  0  0
  2  8  1  0  0  0  0
  4  6  1  0  0  0  0
  4  9  1  0  0  0  0
  5 10  1  0  0  0  0
  6  7  1  0  0  0  0
  6 11  1  0  0  0  0
  6 12  1  0  0  0  0
  7 13  1  0  0  0  0
  7 14  1  0  0  0  0
  7 15  1  0  0  0  0
M  END
> <ConfClashScore>
0 

> <ConfOneFourInteractionScore>
-0.989347 

> <ConfScore>
0.715414 

> <ConfScorePBest>
0.00378957 

> <ConfTolerance>
0.0459415 

$$$$
*****
  PyMOL2.5          3D                             0

 15 14  0  0  0  0  0  0  0  0999 V2000
    4.1570    5.6657    0.5148 C   0  0  0  1  0  0  0  0  0  0  0  0
    3.1262    5.9497   -0.4764 C   0  0  0  1  0  0  0  0  0  0  0  0
    4.1243    6.0747    1.6590 O   0  0  0  1  0  0  0  0  0  0  0  0
    2.1055    6.7521   -0.3060 C   0  0  0  1  0  0  0  0  0  0  0  0
    5.1411    4.9169    0.0567 O   0  0  0  1  0  0  0  0  0  0  0  0
    0.7457    6.6355   -0.9378 C   0  0  0  1  0  0  0  0  0  0  0  0
    0.4587    7.5018   -2.1534 C   0  0  0  1  0  0  0  0  0  0  0  0
    3.2086    5.4742   -1.3977 H   0  0  0  1  0  0  0  0  0  0  0  0
    2.2509    7.5574    0.3358 H   0  0  0  1  0  0  0  0  0  0  0  0
    5.8199    5.4781   -0.3252 H   0  0  0  1  0  0  0  0  0  0  0  0
    0.0225    6.8842   -0.1895 H   0  0  0  1  0  0  0  0  0  0  0  0
    0.6167    5.6154   -1.2341 H   0  0  0  1  0  0  0  0  0  0  0  0
    1.1979    7.3187   -2.9050 H   0  0  0  1  0  0  0  0  0  0  0  0
    0.4861    8.5333   -1.8703 H   0  0  0  1  0  0  0  0  0  0  0  0
   -0.5099    7.2632   -2.5404 H   0  0  0  1  0  0  0  0  0  0  0  0
  1  2  1  0  0  0  0
  1  3  2  0  0  0  0
  1  5  1  0  0  0  0
  2  4  2  0  0  0  0
  2  8  1  0  0  0  0
  4  6  1  0  0  0  0
  4  9  1  0  0  0  0
  5 10  1  0  0  0  0
  6  7  1  0  0  0  0
  6 11  1  0  0  0  0
  6 12  1  0  0  0  0
  7 13  1  0  0  0  0
  7 14  1  0  0  0  0
  7 15  1  0  0  0  0
M  END
> <ConfClashScore>
0 

> <ConfOneFourInteractionScore>
-0.989347 

> <ConfScore>
0.715914 

> <ConfScorePBest>
0.00376109 

> <ConfTolerance>
0.0563367 

$$$$
*****
  PyMOL2.5          3D                             0

 15 14  0  0  0  0  0  0  0  0999 V2000
    4.1905    5.6871    0.5774 C   0  0  0  1  0  0  0  0  0  0  0  0
    3.3022    6.1675   -0.4748 C   0  0  0  1  0  0  0  0  0  0  0  0
    3.8708    5.7354    1.7562 O   0  0  0  1  0  0  0  0  0  0  0  0
    2.1238    6.6430   -0.2320 C   0  0  0  1  0  0  0  0  0  0  0  0
    5.3272    5.2137    0.1564 O   0  0  0  1  0  0  0  0  0  0  0  0
    0.8824    6.6106   -1.0827 C   0  0  0  1  0  0  0  0  0  0  0  0
    1.1298    6.0557   -2.4761 C   0  0  0  1  0  0  0  0  0  0  0  0
    3.6295    6.1261   -1.4611 H   0  0  0  1  0  0  0  0  0  0  0  0
    2.0186    7.1180    0.6872 H   0  0  0  1  0  0  0  0  0  0  0  0
    5.3341    5.2029   -0.8035 H   0  0  0  1  0  0  0  0  0  0  0  0
    0.5068    7.6082   -1.1752 H   0  0  0  1  0  0  0  0  0  0  0  0
    0.1524    5.9976   -0.5967 H   0  0  0  1  0  0  0  0  0  0  0  0
    1.8622    6.6557   -2.9746 H   0  0  0  1  0  0  0  0  0  0  0  0
    0.2166    6.0717   -3.0334 H   0  0  0  1  0  0  0  0  0  0  0  0
    1.4849    5.0491   -2.4010 H   0  0  0  1  0  0  0  0  0  0  0  0
  1  2  1  0  0  0  0
  1  3  2  0  0  0  0
  1  5  1  0  0  0  0
  2  4  2  0  0  0  0
  2  8  1  0  0  0  0
  4  6  1  0  0  0  0
  4  9  1  0  0  0  0
  5 10  1  0  0  0  0
  6  7  1  0  0  0  0
  6 11  1  0  0  0  0
  6 12  1  0  0  0  0
  7 13  1  0  0  0  0
  7 14  1  0  0  0  0
  7 15  1  0  0  0  0
M  END
> <ConfClashScore>
0 

> <ConfOneFourInteractionScore>
-0.971698 

> <ConfScore>
0.720864 

> <ConfScorePBest>
0.00373261 

> <ConfTolerance>
0.0645503 

$$$$
*****
  PyMOL2.5          3D                             0

 15 14  0  0  0  0  0  0  0  0999 V2000
    4.2511    5.8296    0.4314 C   0  0  0  1  0  0  0  0  0  0  0  0
    3.1700    6.1551   -0.4568 C   0  0  0  1  0  0  0  0  0  0  0  0
    4.2347    5.9383    1.6464 O   0  0  0  1  0  0  0  0  0  0  0  0
    2.0349    6.7922   -0.3140 C   0  0  0  1  0  0  0  0  0  0  0  0
    5.3305    5.3752   -0.2131 O   0  0  0  1  0  0  0  0  0  0  0  0
    0.7565    6.5483   -1.0703 C   0  0  0  1  0  0  0  0  0  0  0  0
   -0.0880    5.4364   -0.4694 C   0  0  0  1  0  0  0  0  0  0  0  0
    3.3222    5.8088   -1.4256 H   0  0  0  1  0  0  0  0  0  0  0  0
    2.0145    7.5487    0.3993 H   0  0  0  1  0  0  0  0  0  0  0  0
    5.5647    4.5081    0.1258 H   0  0  0  1  0  0  0  0  0  0  0  0
    1.0018    6.2832   -2.0775 H   0  0  0  1  0  0  0  0  0  0  0  0
    0.1821    7.4511   -1.0684 H   0  0  0  1  0  0  0  0  0  0  0  0
   -0.8410    5.1414   -1.1699 H   0  0  0  1  0  0  0  0  0  0  0  0
   -0.5536    5.7876    0.4277 H   0  0  0  1  0  0  0  0  0  0  0  0
    0.5364    4.5975   -0.2428 H   0  0  0  1  0  0  0  0  0  0  0  0
  1  2  1  0  0  0  0
  1  3  2  0  0  0  0
  1  5  1  0  0  0  0
  2  4  2  0  0  0  0
  2  8  1  0  0  0  0
  4  6  1  0  0  0  0
  4  9  1  0  0  0  0
  5 10  1  0  0  0  0
  6  7  1  0  0  0  0
  6 11  1  0  0  0  0
  6 12  1  0  0  0  0
  7 13  1  0  0  0  0
  7 14  1  0  0  0  0
  7 15  1  0  0  0  0
M  END
> <ConfClashScore>
0 

> <ConfOneFourInteractionScore>
-0.989347 

> <ConfScore>
0.725466 

> <ConfScorePBest>
0.00370413 

> <ConfTolerance>
0.0946755 

$$$$
*****
  PyMOL2.5          3D                             0

 15 14  0  0  0  0  0  0  0  0999 V2000
    4.2025    5.6165    0.5424 C   0  0  0  1  0  0  0  0  0  0  0  0
    3.2079    6.0436   -0.4369 C   0  0  0  1  0  0  0  0  0  0  0  0
    4.0193    5.9202    1.7351 O   0  0  0  1  0  0  0  0  0  0  0  0
    2.1030    6.7232   -0.2579 C   0  0  0  1  0  0  0  0  0  0  0  0
    5.1921    4.9604    0.1070 O   0  0  0  1  0  0  0  0  0  0  0  0
    0.8441    6.6243   -1.0596 C   0  0  0  1  0  0  0  0  0  0  0  0
    0.7962    7.6091   -2.2166 C   0  0  0  1  0  0  0  0  0  0  0  0
    3.4057    5.7680   -1.4201 H   0  0  0  1  0  0  0  0  0  0  0  0
    2.1005    7.4056    0.5269 H   0  0  0  1  0  0  0  0  0  0  0  0
    5.6041    5.4424   -0.6137 H   0  0  0  1  0  0  0  0  0  0  0  0
    0.0130    6.8169   -0.4138 H   0  0  0  1  0  0  0  0  0  0  0  0
    0.7681    5.6323   -1.4534 H   0  0  0  1  0  0  0  0  0  0  0  0
    1.4858    7.3028   -2.9751 H   0  0  0  1  0  0  0  0  0  0  0  0
    1.0622    8.5843   -1.8658 H   0  0  0  1  0  0  0  0  0  0  0  0
   -0.1933    7.6333   -2.6232 H   0  0  0  1  0  0  0  0  0  0  0  0
  1  2  1  0  0  0  0
  1  3  2  0  0  0  0
  1  5  1  0  0  0  0
  2  4  2  0  0  0  0
  2  8  1  0  0  0  0
  4  6  1  0  0  0  0
  4  9  1  0  0  0  0
  5 10  1  0  0  0  0
  6  7  1  0  0  0  0
  6 11  1  0  0  0  0
  6 12  1  0  0  0  0
  7 13  1  0  0  0  0
  7 14  1  0  0  0  0
  7 15  1  0  0  0  0
M  END
> <ConfClashScore>
0 

> <ConfOneFourInteractionScore>
-0.989347 

> <ConfScore>
0.73016 

> <ConfScorePBest>
0.00367564 

> <ConfTolerance>
0.0440583 

$$$$
*****
  PyMOL2.5          3D                             0

 15 14  0  0  0  0  0  0  0  0999 V2000
    4.3615    5.8746    0.2241 C   0  0  0  1  0  0  0  0  0  0  0  0
    3.0930    5.9266   -0.4963 C   0  0  0  1  0  0  0  0  0  0  0  0
    4.7310    6.8933    0.8356 O   0  0  0  1  0  0  0  0  0  0  0  0
    2.2073    6.9203   -0.5187 C   0  0  0  1  0  0  0  0  0  0  0  0
    5.0044    4.7865    0.1767 O   0  0  0  1  0  0  0  0  0  0  0  0
    0.7365    6.6514   -0.6929 C   0  0  0  1  0  0  0  0  0  0  0  0
    0.0759    7.5822   -1.6967 C   0  0  0  1  0  0  0  0  0  0  0  0
    2.8522    5.0864   -1.0598 H   0  0  0  1  0  0  0  0  0  0  0  0
    2.5378    7.9008   -0.4139 H   0  0  0  1  0  0  0  0  0  0  0  0
    5.1554    4.4644    1.0684 H   0  0  0  1  0  0  0  0  0  0  0  0
    0.2535    6.7735    0.2540 H   0  0  0  1  0  0  0  0  0  0  0  0
    0.6122    5.6435   -1.0300 H   0  0  0  1  0  0  0  0  0  0  0  0
   -0.9472    7.7348   -1.4227 H   0  0  0  1  0  0  0  0  0  0  0  0
    0.1222    7.1451   -2.6722 H   0  0  0  1  0  0  0  0  0  0  0  0
    0.5875    8.5219   -1.7017 H   0  0  0  1  0  0  0  0  0  0  0  0
  1  2  1  0  0  0  0
  1  3  2  0  0  0  0
  1  5  1  0  0  0  0
  2  4  2  0  0  0  0
  2  8  1  0  0  0  0
  4  6  1  0  0  0  0
  4  9  1  0  0  0  0
  5 10  1  0  0  0  0
  6  7  1  0  0  0  0
  6 11  1  0  0  0  0
  6 12  1  0  0  0  0
  7 13  1  0  0  0  0
  7 14  1  0  0  0  0
  7 15  1  0  0  0  0
M  END
> <ConfClashScore>
0 

> <ConfOneFourInteractionScore>
-0.989347 

> <ConfScore>
0.732337 

> <ConfScorePBest>
0.00364716 

> <ConfTolerance>
0.0839097 

$$$$
*****
  PyMOL2.5          3D                             0

 15 14  0  0  0  0  0  0  0  0999 V2000
    4.2115    5.7114    0.3846 C   0  0  0  1  0  0  0  0  0  0  0  0
    3.0528    5.9140   -0.4805 C   0  0  0  1  0  0  0  0  0  0  0  0
    4.2181    6.2698    1.4966 O   0  0  0  1  0  0  0  0  0  0  0  0
    2.0793    6.7389   -0.3924 C   0  0  0  1  0  0  0  0  0  0  0  0
    5.1384    4.9748   -0.0602 O   0  0  0  1  0  0  0  0  0  0  0  0
    0.6486    6.6627   -0.8219 C   0  0  0  1  0  0  0  0  0  0  0  0
    0.2861    5.3274   -1.4512 C   0  0  0  1  0  0  0  0  0  0  0  0
    3.0123    5.2823   -1.3056 H   0  0  0  1  0  0  0  0  0  0  0  0
    2.3316    7.6371    0.0671 H   0  0  0  1  0  0  0  0  0  0  0  0
    5.9866    5.3134    0.2354 H   0  0  0  1  0  0  0  0  0  0  0  0
    0.4661    7.4371   -1.5374 H   0  0  0  1  0  0  0  0  0  0  0  0
    0.0270    6.8150    0.0356 H   0  0  0  1  0  0  0  0  0  0  0  0
   -0.7203    5.3644   -1.8127 H   0  0  0  1  0  0  0  0  0  0  0  0
    0.3733    4.5527   -0.7184 H   0  0  0  1  0  0  0  0  0  0  0  0
    0.9501    5.1252   -2.2655 H   0  0  0  1  0  0  0  0  0  0  0  0
  1  2  1  0  0  0  0
  1  3  2  0  0  0  0
  1  5  1  0  0  0  0
  2  4  2  0  0  0  0
  2  8  1  0  0  0  0
  4  6  1  0  0  0  0
  4  9  1  0  0  0  0
  5 10  1  0  0  0  0
  6  7  1  0  0  0  0
  6 11  1  0  0  0  0
  6 12  1  0  0  0  0
  7 13  1  0  0  0  0
  7 14  1  0  0  0  0
  7 15  1  0  0  0  0
M  END
> <ConfClashScore>
0 

> <ConfOneFourInteractionScore>
-0.971698 

> <ConfScore>
0.733283 

> <ConfScorePBest>
0.00361868 

> <ConfTolerance>
0.0577884 

$$$$
*****
  PyMOL2.5          3D                             0

 15 14  0  0  0  0  0  0  0  0999 V2000
    4.1361    5.3774    0.5348 C   0  0  0  1  0  0  0  0  0  0  0  0
    2.8457    5.5728   -0.1163 C   0  0  0  1  0  0  0  0  0  0  0  0
    4.5425    4.3038    0.9095 O   0  0  0  1  0  0  0  0  0  0  0  0
    2.5077    6.6882   -0.6775 C   0  0  0  1  0  0  0  0  0  0  0  0
    4.8300    6.4892    0.6808 O   0  0  0  1  0  0  0  0  0  0  0  0
    1.1450    7.3080   -0.8357 C   0  0  0  1  0  0  0  0  0  0  0  0
    0.0348    6.4694   -0.2238 C   0  0  0  1  0  0  0  0  0  0  0  0
    2.1694    4.7828   -0.1298 H   0  0  0  1  0  0  0  0  0  0  0  0
    3.2938    7.2382   -1.0789 H   0  0  0  1  0  0  0  0  0  0  0  0
    5.2089    6.7438   -0.1637 H   0  0  0  1  0  0  0  0  0  0  0  0
    0.9448    7.4285   -1.8799 H   0  0  0  1  0  0  0  0  0  0  0  0
    1.1495    8.2664   -0.3600 H   0  0  0  1  0  0  0  0  0  0  0  0
   -0.9041    6.9632   -0.3634 H   0  0  0  1  0  0  0  0  0  0  0  0
    0.2190    6.3431    0.8227 H   0  0  0  1  0  0  0  0  0  0  0  0
    0.0080    5.5115   -0.6999 H   0  0  0  1  0  0  0  0  0  0  0  0
  1  2  1  0  0  0  0
  1  3  2  0  0  0  0
  1  5  1  0  0  0  0
  2  4  2  0  0  0  0
  2  8  1  0  0  0  0
  4  6  1  0  0  0  0
  4  9  1  0  0  0  0
  5 10  1  0  0  0  0
  6  7  1  0  0  0  0
  6 11  1  0  0  0  0
  6 12  1  0  0  0  0
  7 13  1  0  0  0  0
  7 14  1  0  0  0  0
  7 15  1  0  0  0  0
M  END
> <ConfClashScore>
0 

> <ConfOneFourInteractionScore>
-0.971698 

> <ConfScore>
0.737155 

> <ConfScorePBest>
0.0035902 

> <ConfTolerance>
0.0904694 

$$$$
*****
  PyMOL2.5          3D                             0

 15 14  0  0  0  0  0  0  0  0999 V2000
    4.3497    5.9356    0.2200 C   0  0  0  1  0  0  0  0  0  0  0  0
    3.0918    5.8699   -0.5250 C   0  0  0  1  0  0  0  0  0  0  0  0
    4.6934    6.9496    0.8049 O   0  0  0  1  0  0  0  0  0  0  0  0
    2.2451    6.9054   -0.5160 C   0  0  0  1  0  0  0  0  0  0  0  0
    5.0513    4.8397    0.2019 O   0  0  0  1  0  0  0  0  0  0  0  0
    0.7594    6.7002   -0.6437 C   0  0  0  1  0  0  0  0  0  0  0  0
    0.2605    6.8340   -2.0733 C   0  0  0  1  0  0  0  0  0  0  0  0
    2.8547    5.0130   -1.0646 H   0  0  0  1  0  0  0  0  0  0  0  0
    2.6204    7.8704   -0.4190 H   0  0  0  1  0  0  0  0  0  0  0  0
    5.0134    4.4206    1.0647 H   0  0  0  1  0  0  0  0  0  0  0  0
    0.2616    7.4297   -0.0396 H   0  0  0  1  0  0  0  0  0  0  0  0
    0.5193    5.7194   -0.2897 H   0  0  0  1  0  0  0  0  0  0  0  0
    0.3785    7.8462   -2.3995 H   0  0  0  1  0  0  0  0  0  0  0  0
   -0.7740    6.5639   -2.1165 H   0  0  0  1  0  0  0  0  0  0  0  0
    0.8257    6.1861   -2.7101 H   0  0  0  1  0  0  0  0  0  0  0  0
  1  2  1  0  0  0  0
  1  3  2  0  0  0  0
  1  5  1  0  0  0  0
  2  4  2  0  0  0  0
  2  8  1  0  0  0  0
  4  6  1  0  0  0  0
  4  9  1  0  0  0  0
  5 10  1  0  0  0  0
  6  7  1  0  0  0  0
  6 11  1  0  0  0  0
  6 12  1  0  0  0  0
  7 13  1  0  0  0  0
  7 14  1  0  0  0  0
  7 15  1  0  0  0  0
M  END
> <ConfClashScore>
0 

> <ConfOneFourInteractionScore>
-0.989347 

> <ConfScore>
0.740212 

> <ConfScorePBest>
0.00356172 

> <ConfTolerance>
0.0505931 

$$$$
*****
  PyMOL2.5          3D                             0

 15 14  0  0  0  0  0  0  0  0999 V2000
    4.2840    5.8471    0.4330 C   0  0  0  1  0  0  0  0  0  0  0  0
    3.1979    6.1685   -0.4886 C   0  0  0  1  0  0  0  0  0  0  0  0
    4.1984    6.0337    1.6311 O   0  0  0  1  0  0  0  0  0  0  0  0
    2.0573    6.7838   -0.2862 C   0  0  0  1  0  0  0  0  0  0  0  0
    5.3217    5.3493   -0.1873 O   0  0  0  1  0  0  0  0  0  0  0  0
    0.7892    6.5177   -1.0499 C   0  0  0  1  0  0  0  0  0  0  0  0
    0.8367    7.1760   -2.4192 C   0  0  0  1  0  0  0  0  0  0  0  0
    3.3548    5.8579   -1.4686 H   0  0  0  1  0  0  0  0  0  0  0  0
    2.0275    7.5098    0.4579 H   0  0  0  1  0  0  0  0  0  0  0  0
    5.4484    4.4365    0.0817 H   0  0  0  1  0  0  0  0  0  0  0  0
   -0.0404    6.9108   -0.5003 H   0  0  0  1  0  0  0  0  0  0  0  0
    0.6685    5.4617   -1.1724 H   0  0  0  1  0  0  0  0  0  0  0  0
    1.7449    6.9038   -2.9151 H   0  0  0  1  0  0  0  0  0  0  0  0
    0.7976    8.2392   -2.3051 H   0  0  0  1  0  0  0  0  0  0  0  0
    0.0008    6.8483   -3.0013 H   0  0  0  1  0  0  0  0  0  0  0  0
  1  2  1  0  0  0  0
  1  3  2  0  0  0  0
  1  5  1  0  0  0  0
  2  4  2  0  0  0  0
  2  8  1  0  0  0  0
  4  6  1  0  0  0  0
  4  9  1  0  0  0  0
  5 10  1  0  0  0  0
  6  7  1  0  0  0  0
  6 11  1  0  0  0  0
  6 12  1  0  0  0  0
  7 13  1  0  0  0  0
  7 14  1  0  0  0  0
  7 15  1  0  0  0  0
M  END
> <ConfClashScore>
0 

> <ConfOneFourInteractionScore>
-0.989347 

> <ConfScore>
0.740212 

> <ConfScorePBest>
0.00353324 

> <ConfTolerance>
0.0961406 

$$$$
*****
  PyMOL2.5          3D                             0

 15 14  0  0  0  0  0  0  0  0999 V2000
    4.3700    5.7325    0.0519 C   0  0  0  1  0  0  0  0  0  0  0  0
    2.9249    5.8415   -0.1070 C   0  0  0  1  0  0  0  0  0  0  0  0
    5.1789    6.2380   -0.7163 O   0  0  0  1  0  0  0  0  0  0  0  0
    2.3078    6.6499   -0.9319 C   0  0  0  1  0  0  0  0  0  0  0  0
    4.7359    5.0332    1.1085 O   0  0  0  1  0  0  0  0  0  0  0  0
    0.9613    7.2738   -0.7441 C   0  0  0  1  0  0  0  0  0  0  0  0
   -0.1803    6.3663   -1.1724 C   0  0  0  1  0  0  0  0  0  0  0  0
    2.3334    5.2245    0.4855 H   0  0  0  1  0  0  0  0  0  0  0  0
    2.8081    6.8835   -1.8133 H   0  0  0  1  0  0  0  0  0  0  0  0
    5.0589    5.6274    1.7898 H   0  0  0  1  0  0  0  0  0  0  0  0
    0.9183    8.1720   -1.3240 H   0  0  0  1  0  0  0  0  0  0  0  0
    0.8375    7.5111    0.2918 H   0  0  0  1  0  0  0  0  0  0  0  0
   -0.1987    5.4969   -0.5490 H   0  0  0  1  0  0  0  0  0  0  0  0
   -0.0383    6.0714   -2.1911 H   0  0  0  1  0  0  0  0  0  0  0  0
   -1.1077    6.8917   -1.0786 H   0  0  0  1  0  0  0  0  0  0  0  0
  1  2  1  0  0  0  0
  1  3  2  0  0  0  0
  1  5  1  0  0  0  0
  2  4  2  0  0  0  0
  2  8  1  0  0  0  0
  4  6  1  0  0  0  0
  4  9  1  0  0  0  0
  5 10  1  0  0  0  0
  6  7  1  0  0  0  0
  6 11  1  0  0  0  0
  6 12  1  0  0  0  0
  7 13  1  0  0  0  0
  7 14  1  0  0  0  0
  7 15  1  0  0  0  0
M  END
> <ConfClashScore>
0 

> <ConfOneFourInteractionScore>
-0.989347 

> <ConfScore>
0.740212 

> <ConfScorePBest>
0.00350476 

> <ConfTolerance>
0.0643558 

$$$$
*****
  PyMOL2.5          3D                             0

 15 14  0  0  0  0  0  0  0  0999 V2000
    4.2407    5.7613    0.5205 C   0  0  0  1  0  0  0  0  0  0  0  0
    3.2764    6.1921   -0.4844 C   0  0  0  1  0  0  0  0  0  0  0  0
    3.8980    5.7507    1.7096 O   0  0  0  1  0  0  0  0  0  0  0  0
    2.0959    6.6625   -0.2422 C   0  0  0  1  0  0  0  0  0  0  0  0
    5.4142    5.4057    0.1520 O   0  0  0  1  0  0  0  0  0  0  0  0
    0.8387    6.5688   -1.0648 C   0  0  0  1  0  0  0  0  0  0  0  0
   -0.4252    6.7754   -0.2462 C   0  0  0  1  0  0  0  0  0  0  0  0
    3.5619    6.1145   -1.4815 H   0  0  0  1  0  0  0  0  0  0  0  0
    2.0015    7.1825    0.6535 H   0  0  0  1  0  0  0  0  0  0  0  0
    5.3518    4.8662   -0.6396 H   0  0  0  1  0  0  0  0  0  0  0  0
    0.7980    5.5992   -1.5154 H   0  0  0  1  0  0  0  0  0  0  0  0
    0.8754    7.3166   -1.8293 H   0  0  0  1  0  0  0  0  0  0  0  0
   -1.2823    6.6457   -0.8736 H   0  0  0  1  0  0  0  0  0  0  0  0
   -0.4283    7.7648    0.1612 H   0  0  0  1  0  0  0  0  0  0  0  0
   -0.4549    6.0611    0.5499 H   0  0  0  1  0  0  0  0  0  0  0  0
  1  2  1  0  0  0  0
  1  3  2  0  0  0  0
  1  5  1  0  0  0  0
  2  4  2  0  0  0  0
  2  8  1  0  0  0  0
  4  6  1  0  0  0  0
  4  9  1  0  0  0  0
  5 10  1  0  0  0  0
  6  7  1  0  0  0  0
  6 11  1  0  0  0  0
  6 12  1  0  0  0  0
  7 13  1  0  0  0  0
  7 14  1  0  0  0  0
  7 15  1  0  0  0  0
M  END
> <ConfClashScore>
0 

> <ConfOneFourInteractionScore>
-0.965547 

> <ConfScore>
0.744694 

> <ConfScorePBest>
0.00347628 

> <ConfTolerance>
0.0591261 

$$$$
*****
  PyMOL2.5          3D                             0

 15 14  0  0  0  0  0  0  0  0999 V2000
    4.1778    5.6174    0.5717 C   0  0  0  1  0  0  0  0  0  0  0  0
    3.3559    6.3695   -0.3694 C   0  0  0  1  0  0  0  0  0  0  0  0
    3.7594    5.2428    1.6406 O   0  0  0  1  0  0  0  0  0  0  0  0
    2.0733    6.4817   -0.2429 C   0  0  0  1  0  0  0  0  0  0  0  0
    5.3852    5.4132    0.1134 O   0  0  0  1  0  0  0  0  0  0  0  0
    1.0126    6.6357   -1.3045 C   0  0  0  1  0  0  0  0  0  0  0  0
   -0.3704    6.7084   -0.6780 C   0  0  0  1  0  0  0  0  0  0  0  0
    3.8200    6.8349   -1.1754 H   0  0  0  1  0  0  0  0  0  0  0  0
    1.7214    6.4630    0.7355 H   0  0  0  1  0  0  0  0  0  0  0  0
    5.3736    5.4461   -0.8460 H   0  0  0  1  0  0  0  0  0  0  0  0
    1.0542    5.7959   -1.9664 H   0  0  0  1  0  0  0  0  0  0  0  0
    1.1957    7.5343   -1.8558 H   0  0  0  1  0  0  0  0  0  0  0  0
   -0.6356    5.7490   -0.2854 H   0  0  0  1  0  0  0  0  0  0  0  0
   -1.0834    6.9990   -1.4210 H   0  0  0  1  0  0  0  0  0  0  0  0
   -0.3657    7.4285    0.1134 H   0  0  0  1  0  0  0  0  0  0  0  0
  1  2  1  0  0  0  0
  1  3  2  0  0  0  0
  1  5  1  0  0  0  0
  2  4  2  0  0  0  0
  2  8  1  0  0  0  0
  4  6  1  0  0  0  0
  4  9  1  0  0  0  0
  5 10  1  0  0  0  0
  6  7  1  0  0  0  0
  6 11  1  0  0  0  0
  6 12  1  0  0  0  0
  7 13  1  0  0  0  0
  7 14  1  0  0  0  0
  7 15  1  0  0  0  0
M  END
> <ConfClashScore>
0 

> <ConfOneFourInteractionScore>
-0.965547 

> <ConfScore>
0.746936 

> <ConfScorePBest>
0.0034478 

> <ConfTolerance>
0.0582767 

$$$$
*****
  PyMOL2.5          3D                             0

 15 14  0  0  0  0  0  0  0  0999 V2000
    4.2338    5.7031    0.5480 C   0  0  0  1  0  0  0  0  0  0  0  0
    3.3086    6.1842   -0.4716 C   0  0  0  1  0  0  0  0  0  0  0  0
    3.8821    5.7739    1.7395 O   0  0  0  1  0  0  0  0  0  0  0  0
    2.1086    6.6855   -0.1769 C   0  0  0  1  0  0  0  0  0  0  0  0
    5.3411    5.2423    0.1470 O   0  0  0  1  0  0  0  0  0  0  0  0
    0.9502    6.5484   -1.1283 C   0  0  0  1  0  0  0  0  0  0  0  0
    0.0736    5.3432   -0.8293 C   0  0  0  1  0  0  0  0  0  0  0  0
    3.5966    6.1343   -1.4696 H   0  0  0  1  0  0  0  0  0  0  0  0
    1.9705    7.1806    0.7272 H   0  0  0  1  0  0  0  0  0  0  0  0
    5.2877    5.0520   -0.7924 H   0  0  0  1  0  0  0  0  0  0  0  0
    1.3352    6.4513   -2.1219 H   0  0  0  1  0  0  0  0  0  0  0  0
    0.3493    7.4313   -1.0627 H   0  0  0  1  0  0  0  0  0  0  0  0
    0.6874    4.4740   -0.7174 H   0  0  0  1  0  0  0  0  0  0  0  0
   -0.6132    5.1930   -1.6359 H   0  0  0  1  0  0  0  0  0  0  0  0
   -0.4706    5.5141    0.0760 H   0  0  0  1  0  0  0  0  0  0  0  0
  1  2  1  0  0  0  0
  1  3  2  0  0  0  0
  1  5  1  0  0  0  0
  2  4  2  0  0  0  0
  2  8  1  0  0  0  0
  4  6  1  0  0  0  0
  4  9  1  0  0  0  0
  5 10  1  0  0  0  0
  6  7  1  0  0  0  0
  6 11  1  0  0  0  0
  6 12  1  0  0  0  0
  7 13  1  0  0  0  0
  7 14  1  0  0  0  0
  7 15  1  0  0  0  0
M  END
> <ConfClashScore>
0 

> <ConfOneFourInteractionScore>
-0.989347 

> <ConfScore>
0.750699 

> <ConfScorePBest>
0.00341932 

> <ConfTolerance>
0.0654474 

$$$$
*****
  PyMOL2.5          3D                             0

 15 14  0  0  0  0  0  0  0  0999 V2000
    4.2179    5.6824    0.5512 C   0  0  0  1  0  0  0  0  0  0  0  0
    3.3095    6.1842   -0.4735 C   0  0  0  1  0  0  0  0  0  0  0  0
    3.8819    5.8036    1.7432 O   0  0  0  1  0  0  0  0  0  0  0  0
    2.1151    6.6497   -0.1956 C   0  0  0  1  0  0  0  0  0  0  0  0
    5.2956    5.1533    0.1538 O   0  0  0  1  0  0  0  0  0  0  0  0
    0.9268    6.5725   -1.1143 C   0  0  0  1  0  0  0  0  0  0  0  0
   -0.4205    6.4261   -0.4259 C   0  0  0  1  0  0  0  0  0  0  0  0
    3.6215    6.1724   -1.4655 H   0  0  0  1  0  0  0  0  0  0  0  0
    1.9797    7.1062    0.7290 H   0  0  0  1  0  0  0  0  0  0  0  0
    5.3313    5.1802   -0.8051 H   0  0  0  1  0  0  0  0  0  0  0  0
    1.0618    5.7288   -1.7584 H   0  0  0  1  0  0  0  0  0  0  0  0
    0.9030    7.4681   -1.6992 H   0  0  0  1  0  0  0  0  0  0  0  0
   -1.2040    6.5635   -1.1416 H   0  0  0  1  0  0  0  0  0  0  0  0
   -0.5087    7.1627    0.3451 H   0  0  0  1  0  0  0  0  0  0  0  0
   -0.4971    5.4489    0.0032 H   0  0  0  1  0  0  0  0  0  0  0  0
  1  2  1  0  0  0  0
  1  3  2  0  0  0  0
  1  5  1  0  0  0  0
  2  4  2  0  0  0  0
  2  8  1  0  0  0  0
  4  6  1  0  0  0  0
  4  9  1  0  0  0  0
  5 10  1  0  0  0  0
  6  7  1  0  0  0  0
  6 11  1  0  0  0  0
  6 12  1  0  0  0  0
  7 13  1  0  0  0  0
  7 14  1  0  0  0  0
  7 15  1  0  0  0  0
M  END
> <ConfClashScore>
0 

> <ConfOneFourInteractionScore>
-0.989347 

> <ConfScore>
0.75611 

> <ConfScorePBest>
0.00339084 

> <ConfTolerance>
0.0590477 

$$$$
*****
  PyMOL2.5          3D                             0

 15 14  0  0  0  0  0  0  0  0999 V2000
    4.1679    5.6408    0.5861 C   0  0  0  1  0  0  0  0  0  0  0  0
    3.3082    6.2281   -0.4344 C   0  0  0  1  0  0  0  0  0  0  0  0
    3.8640    5.5644    1.7701 O   0  0  0  1  0  0  0  0  0  0  0  0
    2.1112    6.5775   -0.2705 C   0  0  0  1  0  0  0  0  0  0  0  0
    5.3166    5.1929    0.1181 O   0  0  0  1  0  0  0  0  0  0  0  0
    0.8943    6.6514   -1.1512 C   0  0  0  1  0  0  0  0  0  0  0  0
   -0.3561    7.2072   -0.4895 C   0  0  0  1  0  0  0  0  0  0  0  0
    3.7199    6.3702   -1.3787 H   0  0  0  1  0  0  0  0  0  0  0  0
    1.9174    6.8885    0.7028 H   0  0  0  1  0  0  0  0  0  0  0  0
    5.3797    5.3906   -0.8192 H   0  0  0  1  0  0  0  0  0  0  0  0
    0.6744    5.6619   -1.4939 H   0  0  0  1  0  0  0  0  0  0  0  0
    1.1299    7.2751   -1.9881 H   0  0  0  1  0  0  0  0  0  0  0  0
   -0.5292    6.6952    0.4340 H   0  0  0  1  0  0  0  0  0  0  0  0
   -1.1953    7.0660   -1.1380 H   0  0  0  1  0  0  0  0  0  0  0  0
   -0.2240    8.2517   -0.2985 H   0  0  0  1  0  0  0  0  0  0  0  0
  1  2  1  0  0  0  0
  1  3  2  0  0  0  0
  1  5  1  0  0  0  0
  2  4  2  0  0  0  0
  2  8  1  0  0  0  0
  4  6  1  0  0  0  0
  4  9  1  0  0  0  0
  5 10  1  0  0  0  0
  6  7  1  0  0  0  0
  6 11  1  0  0  0  0
  6 12  1  0  0  0  0
  7 13  1  0  0  0  0
  7 14  1  0  0  0  0
  7 15  1  0  0  0  0
M  END
> <ConfClashScore>
0 

> <ConfOneFourInteractionScore>
-0.976199 

> <ConfScore>
0.758352 

> <ConfScorePBest>
0.00336236 

> <ConfTolerance>
0.0801937 

$$$$
*****
  PyMOL2.5          3D                             0

 15 14  0  0  0  0  0  0  0  0999 V2000
    4.1517    5.3613    0.5623 C   0  0  0  1  0  0  0  0  0  0  0  0
    2.9041    5.6139   -0.1485 C   0  0  0  1  0  0  0  0  0  0  0  0
    4.4202    4.2546    1.0131 O   0  0  0  1  0  0  0  0  0  0  0  0
    2.5314    6.8105   -0.7071 C   0  0  0  1  0  0  0  0  0  0  0  0
    4.9352    6.3947    0.6713 O   0  0  0  1  0  0  0  0  0  0  0  0
    1.0523    7.0879   -0.7434 C   0  0  0  1  0  0  0  0  0  0  0  0
    0.2147    5.9161   -0.2580 C   0  0  0  1  0  0  0  0  0  0  0  0
    2.2397    4.8190   -0.2399 H   0  0  0  1  0  0  0  0  0  0  0  0
    3.2285    7.4848   -1.0826 H   0  0  0  1  0  0  0  0  0  0  0  0
    5.2160    6.6776   -0.2021 H   0  0  0  1  0  0  0  0  0  0  0  0
    0.7725    7.3120   -1.7516 H   0  0  0  1  0  0  0  0  0  0  0  0
    0.8490    7.9333   -0.1199 H   0  0  0  1  0  0  0  0  0  0  0  0
   -0.8237    6.1481   -0.3714 H   0  0  0  1  0  0  0  0  0  0  0  0
    0.4275    5.7290    0.7738 H   0  0  0  1  0  0  0  0  0  0  0  0
    0.4506    5.0462   -0.8347 H   0  0  0  1  0  0  0  0  0  0  0  0
  1  2  1  0  0  0  0
  1  3  2  0  0  0  0
  1  5  1  0  0  0  0
  2  4  2  0  0  0  0
  2  8  1  0  0  0  0
  4  6  1  0  0  0  0
  4  9  1  0  0  0  0
  5 10  1  0  0  0  0
  6  7  1  0  0  0  0
  6 11  1  0  0  0  0
  6 12  1  0  0  0  0
  7 13  1  0  0  0  0
  7 14  1  0  0  0  0
  7 15  1  0  0  0  0
M  END
> <ConfClashScore>
0 

> <ConfOneFourInteractionScore>
-0.971698 

> <ConfScore>
0.759693 

> <ConfScorePBest>
0.00333388 

> <ConfTolerance>
0.093843 

$$$$
*****
  PyMOL2.5          3D                             0

 15 14  0  0  0  0  0  0  0  0999 V2000
    4.1997    5.3373    0.3747 C   0  0  0  1  0  0  0  0  0  0  0  0
    2.8712    5.6139   -0.1630 C   0  0  0  1  0  0  0  0  0  0  0  0
    4.4596    4.3751    1.0705 O   0  0  0  1  0  0  0  0  0  0  0  0
    2.4627    6.6964   -0.7762 C   0  0  0  1  0  0  0  0  0  0  0  0
    5.1059    6.2335    0.0358 O   0  0  0  1  0  0  0  0  0  0  0  0
    1.0683    7.2723   -0.7720 C   0  0  0  1  0  0  0  0  0  0  0  0
    0.6149    7.5966   -2.1861 C   0  0  0  1  0  0  0  0  0  0  0  0
    2.1639    4.8606   -0.0447 H   0  0  0  1  0  0  0  0  0  0  0  0
    3.1770    7.2154   -1.3258 H   0  0  0  1  0  0  0  0  0  0  0  0
    5.1708    6.8997    0.7239 H   0  0  0  1  0  0  0  0  0  0  0  0
    1.0606    8.1682   -0.1870 H   0  0  0  1  0  0  0  0  0  0  0  0
    0.3957    6.5595   -0.3427 H   0  0  0  1  0  0  0  0  0  0  0  0
   -0.0246    8.4542   -2.1683 H   0  0  0  1  0  0  0  0  0  0  0  0
    0.0806    6.7618   -2.5893 H   0  0  0  1  0  0  0  0  0  0  0  0
    1.4696    7.8020   -2.7962 H   0  0  0  1  0  0  0  0  0  0  0  0
  1  2  1  0  0  0  0
  1  3  2  0  0  0  0
  1  5  1  0  0  0  0
  2  4  2  0  0  0  0
  2  8  1  0  0  0  0
  4  6  1  0  0  0  0
  4  9  1  0  0  0  0
  5 10  1  0  0  0  0
  6  7  1  0  0  0  0
  6 11  1  0  0  0  0
  6 12  1  0  0  0  0
  7 13  1  0  0  0  0
  7 14  1  0  0  0  0
  7 15  1  0  0  0  0
M  END
> <ConfClashScore>
0 

> <ConfOneFourInteractionScore>
-0.989347 

> <ConfScore>
0.762362 

> <ConfScorePBest>
0.0033054 

> <ConfTolerance>
0.089015 

$$$$
*****
  PyMOL2.5          3D                             0

 15 14  0  0  0  0  0  0  0  0999 V2000
    4.1749    5.7874    0.3814 C   0  0  0  1  0  0  0  0  0  0  0  0
    3.0364    5.8613   -0.5352 C   0  0  0  1  0  0  0  0  0  0  0  0
    4.2886    6.4796    1.3741 O   0  0  0  1  0  0  0  0  0  0  0  0
    2.1157    6.7820   -0.3767 C   0  0  0  1  0  0  0  0  0  0  0  0
    5.0792    4.8930    0.0326 O   0  0  0  1  0  0  0  0  0  0  0  0
    0.6659    6.6226   -0.7492 C   0  0  0  1  0  0  0  0  0  0  0  0
   -0.1891    7.8689   -0.5880 C   0  0  0  1  0  0  0  0  0  0  0  0
    2.9568    5.1798   -1.3168 H   0  0  0  1  0  0  0  0  0  0  0  0
    2.4092    7.6898    0.0371 H   0  0  0  1  0  0  0  0  0  0  0  0
    5.9526    5.2087    0.2757 H   0  0  0  1  0  0  0  0  0  0  0  0
    0.2491    5.8543   -0.1320 H   0  0  0  1  0  0  0  0  0  0  0  0
    0.6199    6.3211   -1.7748 H   0  0  0  1  0  0  0  0  0  0  0  0
    0.2374    8.6703   -1.1543 H   0  0  0  1  0  0  0  0  0  0  0  0
   -0.2273    8.1437    0.4454 H   0  0  0  1  0  0  0  0  0  0  0  0
   -1.1792    7.6701   -0.9416 H   0  0  0  1  0  0  0  0  0  0  0  0
  1  2  1  0  0  0  0
  1  3  2  0  0  0  0
  1  5  1  0  0  0  0
  2  4  2  0  0  0  0
  2  8  1  0  0  0  0
  4  6  1  0  0  0  0
  4  9  1  0  0  0  0
  5 10  1  0  0  0  0
  6  7  1  0  0  0  0
  6 11  1  0  0  0  0
  6 12  1  0  0  0  0
  7 13  1  0  0  0  0
  7 14  1  0  0  0  0
  7 15  1  0  0  0  0
M  END
> <ConfClashScore>
0 

> <ConfOneFourInteractionScore>
-0.954894 

> <ConfScore>
0.770772 

> <ConfScorePBest>
0.00327691 

> <ConfTolerance>
0.108988 

$$$$
*****
  PyMOL2.5          3D                             0

 15 14  0  0  0  0  0  0  0  0999 V2000
    4.1104    5.4725    0.4886 C   0  0  0  1  0  0  0  0  0  0  0  0
    2.8312    5.6015   -0.1999 C   0  0  0  1  0  0  0  0  0  0  0  0
    4.4606    4.4674    1.0849 O   0  0  0  1  0  0  0  0  0  0  0  0
    2.3839    6.7456   -0.6535 C   0  0  0  1  0  0  0  0  0  0  0  0
    4.8659    6.5505    0.4099 O   0  0  0  1  0  0  0  0  0  0  0  0
    0.9455    7.1696   -0.7844 C   0  0  0  1  0  0  0  0  0  0  0  0
   -0.0332    6.1135   -0.2974 C   0  0  0  1  0  0  0  0  0  0  0  0
    2.2502    4.7497   -0.3363 H   0  0  0  1  0  0  0  0  0  0  0  0
    3.1002    7.4362   -0.9562 H   0  0  0  1  0  0  0  0  0  0  0  0
    5.7313    6.3112    0.0700 H   0  0  0  1  0  0  0  0  0  0  0  0
    0.7427    7.3724   -1.8153 H   0  0  0  1  0  0  0  0  0  0  0  0
    0.7993    8.0603   -0.2097 H   0  0  0  1  0  0  0  0  0  0  0  0
    0.1238    5.9351    0.7458 H   0  0  0  1  0  0  0  0  0  0  0  0
    0.1222    5.2055   -0.8417 H   0  0  0  1  0  0  0  0  0  0  0  0
   -1.0346    6.4566   -0.4536 H   0  0  0  1  0  0  0  0  0  0  0  0
  1  2  1  0  0  0  0
  1  3  2  0  0  0  0
  1  5  1  0  0  0  0
  2  4  2  0  0  0  0
  2  8  1  0  0  0  0
  4  6  1  0  0  0  0
  4  9  1  0  0  0  0
  5 10  1  0  0  0  0
  6  7  1  0  0  0  0
  6 11  1  0  0  0  0
  6 12  1  0  0  0  0
  7 13  1  0  0  0  0
  7 14  1  0  0  0  0
  7 15  1  0  0  0  0
M  END
> <ConfClashScore>
0 

> <ConfOneFourInteractionScore>
-0.971698 

> <ConfScore>
0.771019 

> <ConfScorePBest>
0.00324843 

> <ConfTolerance>
0.0785147 

$$$$
*****
  PyMOL2.5          3D                             0

 15 14  0  0  0  0  0  0  0  0999 V2000
    4.1339    5.3637    0.5759 C   0  0  0  1  0  0  0  0  0  0  0  0
    2.8969    5.5770   -0.1667 C   0  0  0  1  0  0  0  0  0  0  0  0
    4.4107    4.3244    1.1424 O   0  0  0  1  0  0  0  0  0  0  0  0
    2.5459    6.7532   -0.6408 C   0  0  0  1  0  0  0  0  0  0  0  0
    4.9369    6.4098    0.5800 O   0  0  0  1  0  0  0  0  0  0  0  0
    1.1137    7.1851   -0.7968 C   0  0  0  1  0  0  0  0  0  0  0  0
    0.6468    8.2568    0.1747 C   0  0  0  1  0  0  0  0  0  0  0  0
    2.2663    4.7660   -0.3283 H   0  0  0  1  0  0  0  0  0  0  0  0
    3.2958    7.4170   -0.9214 H   0  0  0  1  0  0  0  0  0  0  0  0
    5.0791    6.7081   -0.3213 H   0  0  0  1  0  0  0  0  0  0  0  0
    0.4928    6.3241   -0.6619 H   0  0  0  1  0  0  0  0  0  0  0  0
    0.9893    7.5631   -1.7900 H   0  0  0  1  0  0  0  0  0  0  0  0
    1.4401    8.9542    0.3455 H   0  0  0  1  0  0  0  0  0  0  0  0
    0.3678    7.8005    1.1015 H   0  0  0  1  0  0  0  0  0  0  0  0
   -0.1961    8.7700   -0.2388 H   0  0  0  1  0  0  0  0  0  0  0  0
  1  2  1  0  0  0  0
  1  3  2  0  0  0  0
  1  5  1  0  0  0  0
  2  4  2  0  0  0  0
  2  8  1  0  0  0  0
  4  6  1  0  0  0  0
  4  9  1  0  0  0  0
  5 10  1  0  0  0  0
  6  7  1  0  0  0  0
  6 11  1  0  0  0  0
  6 12  1  0  0  0  0
  7 13  1  0  0  0  0
  7 14  1  0  0  0  0
  7 15  1  0  0  0  0
M  END
> <ConfClashScore>
0 

> <ConfOneFourInteractionScore>
-0.989347 

> <ConfScore>
0.772157 

> <ConfScorePBest>
0.00321995 

> <ConfTolerance>
0.094848 

$$$$
*****
  PyMOL2.5          3D                             0

 15 14  0  0  0  0  0  0  0  0999 V2000
    4.1439    5.4220    0.5486 C   0  0  0  1  0  0  0  0  0  0  0  0
    2.8983    5.6638   -0.1730 C   0  0  0  1  0  0  0  0  0  0  0  0
    4.3922    4.3335    1.0522 O   0  0  0  1  0  0  0  0  0  0  0  0
    2.4221    6.7876   -0.6647 C   0  0  0  1  0  0  0  0  0  0  0  0
    4.9470    6.4444    0.6066 O   0  0  0  1  0  0  0  0  0  0  0  0
    0.9505    7.0789   -0.7803 C   0  0  0  1  0  0  0  0  0  0  0  0
    0.4988    8.5138   -0.5629 C   0  0  0  1  0  0  0  0  0  0  0  0
    2.3002    4.8258   -0.3200 H   0  0  0  1  0  0  0  0  0  0  0  0
    3.0961    7.5100   -0.9893 H   0  0  0  1  0  0  0  0  0  0  0  0
    5.5289    6.4384   -0.1569 H   0  0  0  1  0  0  0  0  0  0  0  0
    0.4462    6.4716   -0.0580 H   0  0  0  1  0  0  0  0  0  0  0  0
    0.6438    6.7923   -1.7645 H   0  0  0  1  0  0  0  0  0  0  0  0
    1.0924    9.1702   -1.1644 H   0  0  0  1  0  0  0  0  0  0  0  0
    0.6162    8.7720    0.4688 H   0  0  0  1  0  0  0  0  0  0  0  0
   -0.5303    8.6094   -0.8402 H   0  0  0  1  0  0  0  0  0  0  0  0
  1  2  1  0  0  0  0
  1  3  2  0  0  0  0
  1  5  1  0  0  0  0
  2  4  2  0  0  0  0
  2  8  1  0  0  0  0
  4  6  1  0  0  0  0
  4  9  1  0  0  0  0
  5 10  1  0  0  0  0
  6  7  1  0  0  0  0
  6 11  1  0  0  0  0
  6 12  1  0  0  0  0
  7 13  1  0  0  0  0
  7 14  1  0  0  0  0
  7 15  1  0  0  0  0
M  END
> <ConfClashScore>
0 

> <ConfOneFourInteractionScore>
-0.989347 

> <ConfScore>
0.772401 

> <ConfScorePBest>
0.00319147 

> <ConfTolerance>
0.119319 

$$$$
*****
  PyMOL2.5          3D                             0

 15 14  0  0  0  0  0  0  0  0999 V2000
    4.1399    5.4531    0.5086 C   0  0  0  1  0  0  0  0  0  0  0  0
    2.8284    5.5907   -0.1261 C   0  0  0  1  0  0  0  0  0  0  0  0
    4.5142    4.3138    0.8406 O   0  0  0  1  0  0  0  0  0  0  0  0
    2.4851    6.7206   -0.7068 C   0  0  0  1  0  0  0  0  0  0  0  0
    4.8097    6.5124    0.6780 O   0  0  0  1  0  0  0  0  0  0  0  0
    1.0606    7.2113   -0.7835 C   0  0  0  1  0  0  0  0  0  0  0  0
    1.0169    8.7284   -0.8667 C   0  0  0  1  0  0  0  0  0  0  0  0
    2.1638    4.7908   -0.1182 H   0  0  0  1  0  0  0  0  0  0  0  0
    3.2327    7.3040   -1.1338 H   0  0  0  1  0  0  0  0  0  0  0  0
    5.4447    6.6076   -0.0357 H   0  0  0  1  0  0  0  0  0  0  0  0
    0.5322    6.8925    0.0907 H   0  0  0  1  0  0  0  0  0  0  0  0
    0.5938    6.7986   -1.6533 H   0  0  0  1  0  0  0  0  0  0  0  0
    1.3800    9.1469    0.0487 H   0  0  0  1  0  0  0  0  0  0  0  0
    0.0087    9.0475   -1.0294 H   0  0  0  1  0  0  0  0  0  0  0  0
    1.6314    9.0586   -1.6780 H   0  0  0  1  0  0  0  0  0  0  0  0
  1  2  1  0  0  0  0
  1  3  2  0  0  0  0
  1  5  1  0  0  0  0
  2  4  2  0  0  0  0
  2  8  1  0  0  0  0
  4  6  1  0  0  0  0
  4  9  1  0  0  0  0
  5 10  1  0  0  0  0
  6  7  1  0  0  0  0
  6 11  1  0  0  0  0
  6 12  1  0  0  0  0
  7 13  1  0  0  0  0
  7 14  1  0  0  0  0
  7 15  1  0  0  0  0
M  END
> <ConfClashScore>
0 

> <ConfOneFourInteractionScore>
-0.965547 

> <ConfScore>
0.772401 

> <ConfScorePBest>
0.00316299 

> <ConfTolerance>
0.0687647 

$$$$
*****
  PyMOL2.5          3D                             0

 15 14  0  0  0  0  0  0  0  0999 V2000
    4.2278    5.7859    0.3457 C   0  0  0  1  0  0  0  0  0  0  0  0
    3.0518    5.8911   -0.5095 C   0  0  0  1  0  0  0  0  0  0  0  0
    4.4141    6.6727    1.1985 O   0  0  0  1  0  0  0  0  0  0  0  0
    2.1086    6.7929   -0.4008 C   0  0  0  1  0  0  0  0  0  0  0  0
    4.9855    4.7905    0.1602 O   0  0  0  1  0  0  0  0  0  0  0  0
    0.6546    6.6321   -0.7558 C   0  0  0  1  0  0  0  0  0  0  0  0
   -0.2189    6.0295    0.3325 C   0  0  0  1  0  0  0  0  0  0  0  0
    2.9536    5.1898   -1.2712 H   0  0  0  1  0  0  0  0  0  0  0  0
    2.3952    7.7209   -0.0290 H   0  0  0  1  0  0  0  0  0  0  0  0
    5.8880    5.0284    0.3851 H   0  0  0  1  0  0  0  0  0  0  0  0
    0.5930    5.9995   -1.6166 H   0  0  0  1  0  0  0  0  0  0  0  0
    0.2642    7.5993   -0.9946 H   0  0  0  1  0  0  0  0  0  0  0  0
    0.2174    5.1145    0.6749 H   0  0  0  1  0  0  0  0  0  0  0  0
   -1.1945    5.8339   -0.0611 H   0  0  0  1  0  0  0  0  0  0  0  0
   -0.2946    6.7161    1.1497 H   0  0  0  1  0  0  0  0  0  0  0  0
  1  2  1  0  0  0  0
  1  3  2  0  0  0  0
  1  5  1  0  0  0  0
  2  4  2  0  0  0  0
  2  8  1  0  0  0  0
  4  6  1  0  0  0  0
  4  9  1  0  0  0  0
  5 10  1  0  0  0  0
  6  7  1  0  0  0  0
  6 11  1  0  0  0  0
  6 12  1  0  0  0  0
  7 13  1  0  0  0  0
  7 14  1  0  0  0  0
  7 15  1  0  0  0  0
M  END
> <ConfClashScore>
0 

> <ConfOneFourInteractionScore>
-0.989347 

> <ConfScore>
0.774535 

> <ConfScorePBest>
0.00313451 

> <ConfTolerance>
0.0668683 

$$$$
*****
  PyMOL2.5          3D                             0

 15 14  0  0  0  0  0  0  0  0999 V2000
    4.2002    5.3291    0.3803 C   0  0  0  1  0  0  0  0  0  0  0  0
    2.8400    5.5596   -0.1082 C   0  0  0  1  0  0  0  0  0  0  0  0
    4.5298    4.3130    0.9696 O   0  0  0  1  0  0  0  0  0  0  0  0
    2.5540    6.6376   -0.7637 C   0  0  0  1  0  0  0  0  0  0  0  0
    5.0779    6.2820    0.1552 O   0  0  0  1  0  0  0  0  0  0  0  0
    1.2592    7.4021   -0.8342 C   0  0  0  1  0  0  0  0  0  0  0  0
    0.7699    7.6146   -2.2576 C   0  0  0  1  0  0  0  0  0  0  0  0
    2.0990    4.8526    0.0727 H   0  0  0  1  0  0  0  0  0  0  0  0
    3.3341    7.0348   -1.3251 H   0  0  0  1  0  0  0  0  0  0  0  0
    4.7851    7.0934    0.5764 H   0  0  0  1  0  0  0  0  0  0  0  0
    1.4033    8.3589   -0.3773 H   0  0  0  1  0  0  0  0  0  0  0  0
    0.5124    6.8577   -0.2951 H   0  0  0  1  0  0  0  0  0  0  0  0
    1.6045    7.6057   -2.9272 H   0  0  0  1  0  0  0  0  0  0  0  0
    0.2688    8.5575   -2.3252 H   0  0  0  1  0  0  0  0  0  0  0  0
    0.0922    6.8301   -2.5223 H   0  0  0  1  0  0  0  0  0  0  0  0
  1  2  1  0  0  0  0
  1  3  2  0  0  0  0
  1  5  1  0  0  0  0
  2  4  2  0  0  0  0
  2  8  1  0  0  0  0
  4  6  1  0  0  0  0
  4  9  1  0  0  0  0
  5 10  1  0  0  0  0
  6  7  1  0  0  0  0
  6 11  1  0  0  0  0
  6 12  1  0  0  0  0
  7 13  1  0  0  0  0
  7 14  1  0  0  0  0
  7 15  1  0  0  0  0
M  END
> <ConfClashScore>
0 

> <ConfOneFourInteractionScore>
-0.989347 

> <ConfScore>
0.776608 

> <ConfScorePBest>
0.00310603 

> <ConfTolerance>
0.100657 

$$$$
*****
  PyMOL2.5          3D                             0

 15 14  0  0  0  0  0  0  0  0999 V2000
    4.1795    5.3385    0.3848 C   0  0  0  1  0  0  0  0  0  0  0  0
    2.8523    5.5715   -0.1731 C   0  0  0  1  0  0  0  0  0  0  0  0
    4.4477    4.4111    1.1308 O   0  0  0  1  0  0  0  0  0  0  0  0
    2.5157    6.7002   -0.7597 C   0  0  0  1  0  0  0  0  0  0  0  0
    5.0767    6.2286    0.0083 O   0  0  0  1  0  0  0  0  0  0  0  0
    1.1145    7.2502   -0.7479 C   0  0  0  1  0  0  0  0  0  0  0  0
    0.7755    8.0432   -1.9996 C   0  0  0  1  0  0  0  0  0  0  0  0
    2.1426    4.8143   -0.1045 H   0  0  0  1  0  0  0  0  0  0  0  0
    3.2541    7.2389   -1.2559 H   0  0  0  1  0  0  0  0  0  0  0  0
    5.0963    6.9509    0.6404 H   0  0  0  1  0  0  0  0  0  0  0  0
    1.0077    7.8923    0.1013 H   0  0  0  1  0  0  0  0  0  0  0  0
    0.4285    6.4331   -0.6663 H   0  0  0  1  0  0  0  0  0  0  0  0
    1.3738    8.9297   -2.0337 H   0  0  0  1  0  0  0  0  0  0  0  0
   -0.2599    8.3125   -1.9814 H   0  0  0  1  0  0  0  0  0  0  0  0
    0.9741    7.4457   -2.8647 H   0  0  0  1  0  0  0  0  0  0  0  0
  1  2  1  0  0  0  0
  1  3  2  0  0  0  0
  1  5  1  0  0  0  0
  2  4  2  0  0  0  0
  2  8  1  0  0  0  0
  4  6  1  0  0  0  0
  4  9  1  0  0  0  0
  5 10  1  0  0  0  0
  6  7  1  0  0  0  0
  6 11  1  0  0  0  0
  6 12  1  0  0  0  0
  7 13  1  0  0  0  0
  7 14  1  0  0  0  0
  7 15  1  0  0  0  0
M  END
> <ConfClashScore>
0 

> <ConfOneFourInteractionScore>
-0.989347 

> <ConfScore>
0.779576 

> <ConfScorePBest>
0.00307755 

> <ConfTolerance>
0.08036 

$$$$
*****
  PyMOL2.5          3D                             0

 15 14  0  0  0  0  0  0  0  0999 V2000
    4.1864    5.3306    0.3854 C   0  0  0  1  0  0  0  0  0  0  0  0
    2.8543    5.5700   -0.1581 C   0  0  0  1  0  0  0  0  0  0  0  0
    4.4679    4.3775    1.1012 O   0  0  0  1  0  0  0  0  0  0  0  0
    2.5258    6.6864   -0.7632 C   0  0  0  1  0  0  0  0  0  0  0  0
    5.0736    6.2412    0.0348 O   0  0  0  1  0  0  0  0  0  0  0  0
    1.1466    7.2895   -0.7674 C   0  0  0  1  0  0  0  0  0  0  0  0
    1.2626    8.7632   -1.1212 C   0  0  0  1  0  0  0  0  0  0  0  0
    2.1353    4.8248   -0.0619 H   0  0  0  1  0  0  0  0  0  0  0  0
    3.2740    7.1927   -1.2785 H   0  0  0  1  0  0  0  0  0  0  0  0
    5.0155    6.9914    0.6309 H   0  0  0  1  0  0  0  0  0  0  0  0
    0.7048    7.1853    0.2016 H   0  0  0  1  0  0  0  0  0  0  0  0
    0.5378    6.7916   -1.4929 H   0  0  0  1  0  0  0  0  0  0  0  0
    0.2845    9.1902   -1.1982 H   0  0  0  1  0  0  0  0  0  0  0  0
    1.7710    8.8661   -2.0571 H   0  0  0  1  0  0  0  0  0  0  0  0
    1.8141    9.2708   -0.3576 H   0  0  0  1  0  0  0  0  0  0  0  0
  1  2  1  0  0  0  0
  1  3  2  0  0  0  0
  1  5  1  0  0  0  0
  2  4  2  0  0  0  0
  2  8  1  0  0  0  0
  4  6  1  0  0  0  0
  4  9  1  0  0  0  0
  5 10  1  0  0  0  0
  6  7  1  0  0  0  0
  6 11  1  0  0  0  0
  6 12  1  0  0  0  0
  7 13  1  0  0  0  0
  7 14  1  0  0  0  0
  7 15  1  0  0  0  0
M  END
> <ConfClashScore>
0 

> <ConfOneFourInteractionScore>
-0.965547 

> <ConfScore>
0.781967 

> <ConfScorePBest>
0.00304907 

> <ConfTolerance>
0.0734215 

$$$$
*****
  PyMOL2.5          3D                             0

 15 14  0  0  0  0  0  0  0  0999 V2000
    4.1489    5.3454    0.5553 C   0  0  0  1  0  0  0  0  0  0  0  0
    2.8694    5.5446   -0.1266 C   0  0  0  1  0  0  0  0  0  0  0  0
    4.5052    4.2826    1.0254 O   0  0  0  1  0  0  0  0  0  0  0  0
    2.5808    6.7011   -0.6689 C   0  0  0  1  0  0  0  0  0  0  0  0
    4.8921    6.4332    0.6164 O   0  0  0  1  0  0  0  0  0  0  0  0
    1.2145    7.3130   -0.8272 C   0  0  0  1  0  0  0  0  0  0  0  0
    1.2134    8.8222   -0.6466 C   0  0  0  1  0  0  0  0  0  0  0  0
    2.1853    4.7631   -0.1808 H   0  0  0  1  0  0  0  0  0  0  0  0
    3.3824    7.2572   -1.0292 H   0  0  0  1  0  0  0  0  0  0  0  0
    4.9006    6.8641   -0.2413 H   0  0  0  1  0  0  0  0  0  0  0  0
    0.5617    6.8821   -0.0971 H   0  0  0  1  0  0  0  0  0  0  0  0
    0.8519    7.0871   -1.8082 H   0  0  0  1  0  0  0  0  0  0  0  0
    1.8358    9.2716   -1.3920 H   0  0  0  1  0  0  0  0  0  0  0  0
    1.5893    9.0651    0.3253 H   0  0  0  1  0  0  0  0  0  0  0  0
    0.2144    9.1923   -0.7459 H   0  0  0  1  0  0  0  0  0  0  0  0
  1  2  1  0  0  0  0
  1  3  2  0  0  0  0
  1  5  1  0  0  0  0
  2  4  2  0  0  0  0
  2  8  1  0  0  0  0
  4  6  1  0  0  0  0
  4  9  1  0  0  0  0
  5 10  1  0  0  0  0
  6  7  1  0  0  0  0
  6 11  1  0  0  0  0
  6 12  1  0  0  0  0
  7 13  1  0  0  0  0
  7 14  1  0  0  0  0
  7 15  1  0  0  0  0
M  END
> <ConfClashScore>
0 

> <ConfOneFourInteractionScore>
-0.989347 

> <ConfScore>
0.794939 

> <ConfScorePBest>
0.00302059 

> <ConfTolerance>
0.0951664 

$$$$
*****
  PyMOL2.5          3D                             0

 15 14  0  0  0  0  0  0  0  0999 V2000
    4.3051    5.8565    0.3115 C   0  0  0  1  0  0  0  0  0  0  0  0
    3.1090    6.0296   -0.5080 C   0  0  0  1  0  0  0  0  0  0  0  0
    4.5149    6.5552    1.2953 O   0  0  0  1  0  0  0  0  0  0  0  0
    2.0932    6.8930   -0.3986 C   0  0  0  1  0  0  0  0  0  0  0  0
    5.1083    4.9143   -0.0895 O   0  0  0  1  0  0  0  0  0  0  0  0
    0.7030    6.5277   -0.8567 C   0  0  0  1  0  0  0  0  0  0  0  0
    0.4756    6.9692   -2.2933 C   0  0  0  1  0  0  0  0  0  0  0  0
    3.0345    5.3722   -1.3103 H   0  0  0  1  0  0  0  0  0  0  0  0
    2.2650    7.8338    0.0100 H   0  0  0  1  0  0  0  0  0  0  0  0
    5.5462    4.5220    0.6694 H   0  0  0  1  0  0  0  0  0  0  0  0
   -0.0128    7.0096   -0.2241 H   0  0  0  1  0  0  0  0  0  0  0  0
    0.5798    5.4668   -0.7921 H   0  0  0  1  0  0  0  0  0  0  0  0
   -0.5336    6.7552   -2.5772 H   0  0  0  1  0  0  0  0  0  0  0  0
    1.1468    6.4422   -2.9387 H   0  0  0  1  0  0  0  0  0  0  0  0
    0.6534    8.0212   -2.3752 H   0  0  0  1  0  0  0  0  0  0  0  0
  1  2  1  0  0  0  0
  1  3  2  0  0  0  0
  1  5  1  0  0  0  0
  2  4  2  0  0  0  0
  2  8  1  0  0  0  0
  4  6  1  0  0  0  0
  4  9  1  0  0  0  0
  5 10  1  0  0  0  0
  6  7  1  0  0  0  0
  6 11  1  0  0  0  0
  6 12  1  0  0  0  0
  7 13  1  0  0  0  0
  7 14  1  0  0  0  0
  7 15  1  0  0  0  0
M  END
> <ConfClashScore>
0 

> <ConfOneFourInteractionScore>
-0.989347 

> <ConfScore>
0.801647 

> <ConfScorePBest>
0.00299211 

> <ConfTolerance>
0.0990965 

$$$$
*****
  PyMOL2.5          3D                             0

 15 14  0  0  0  0  0  0  0  0999 V2000
    4.3246    5.8405    0.1763 C   0  0  0  1  0  0  0  0  0  0  0  0
    2.9857    5.7842   -0.3992 C   0  0  0  1  0  0  0  0  0  0  0  0
    4.8542    6.9642    0.2465 O   0  0  0  1  0  0  0  0  0  0  0  0
    2.2651    6.8764   -0.6556 C   0  0  0  1  0  0  0  0  0  0  0  0
    4.8095    4.7446    0.5443 O   0  0  0  1  0  0  0  0  0  0  0  0
    0.7617    6.7844   -0.5704 C   0  0  0  1  0  0  0  0  0  0  0  0
    0.1625    6.4767   -1.9330 C   0  0  0  1  0  0  0  0  0  0  0  0
    2.5760    4.8538   -0.6186 H   0  0  0  1  0  0  0  0  0  0  0  0
    2.7292    7.7720   -0.9088 H   0  0  0  1  0  0  0  0  0  0  0  0
    5.3732    4.8842    1.3087 H   0  0  0  1  0  0  0  0  0  0  0  0
    0.3725    7.7169   -0.2185 H   0  0  0  1  0  0  0  0  0  0  0  0
    0.4961    6.0056    0.1136 H   0  0  0  1  0  0  0  0  0  0  0  0
    0.6327    5.6069   -2.3419 H   0  0  0  1  0  0  0  0  0  0  0  0
    0.3202    7.3082   -2.5877 H   0  0  0  1  0  0  0  0  0  0  0  0
   -0.8874    6.2985   -1.8287 H   0  0  0  1  0  0  0  0  0  0  0  0
  1  2  1  0  0  0  0
  1  3  2  0  0  0  0
  1  5  1  0  0  0  0
  2  4  2  0  0  0  0
  2  8  1  0  0  0  0
  4  6  1  0  0  0  0
  4  9  1  0  0  0  0
  5 10  1  0  0  0  0
  6  7  1  0  0  0  0
  6 11  1  0  0  0  0
  6 12  1  0  0  0  0
  7 13  1  0  0  0  0
  7 14  1  0  0  0  0
  7 15  1  0  0  0  0
M  END
> <ConfClashScore>
0 

> <ConfOneFourInteractionScore>
-0.989347 

> <ConfScore>
0.801647 

> <ConfScorePBest>
0.00296363 

> <ConfTolerance>
0.11166 

$$$$
*****
  PyMOL2.5          3D                             0

 15 14  0  0  0  0  0  0  0  0999 V2000
    4.2355    5.4332    0.3057 C   0  0  0  1  0  0  0  0  0  0  0  0
    2.8761    5.6989   -0.1565 C   0  0  0  1  0  0  0  0  0  0  0  0
    4.4709    4.3349    0.8250 O   0  0  0  1  0  0  0  0  0  0  0  0
    2.3864    6.7033   -0.8434 C   0  0  0  1  0  0  0  0  0  0  0  0
    5.0877    6.3532    0.1419 O   0  0  0  1  0  0  0  0  0  0  0  0
    0.9751    7.2230   -0.7244 C   0  0  0  1  0  0  0  0  0  0  0  0
    0.9386    8.4999    0.0992 C   0  0  0  1  0  0  0  0  0  0  0  0
    2.1803    4.9704    0.1020 H   0  0  0  1  0  0  0  0  0  0  0  0
    3.0181    7.1767   -1.5204 H   0  0  0  1  0  0  0  0  0  0  0  0
    5.4491    6.6106    0.9932 H   0  0  0  1  0  0  0  0  0  0  0  0
    0.3671    6.4816   -0.2494 H   0  0  0  1  0  0  0  0  0  0  0  0
    0.5922    7.4255   -1.7029 H   0  0  0  1  0  0  0  0  0  0  0  0
    1.7079    9.1635   -0.2363 H   0  0  0  1  0  0  0  0  0  0  0  0
    1.0968    8.2634    1.1307 H   0  0  0  1  0  0  0  0  0  0  0  0
   -0.0147    8.9718   -0.0168 H   0  0  0  1  0  0  0  0  0  0  0  0
  1  2  1  0  0  0  0
  1  3  2  0  0  0  0
  1  5  1  0  0  0  0
  2  4  2  0  0  0  0
  2  8  1  0  0  0  0
  4  6  1  0  0  0  0
  4  9  1  0  0  0  0
  5 10  1  0  0  0  0
  6  7  1  0  0  0  0
  6 11  1  0  0  0  0
  6 12  1  0  0  0  0
  7 13  1  0  0  0  0
  7 14  1  0  0  0  0
  7 15  1  0  0  0  0
M  END
> <ConfClashScore>
0 

> <ConfOneFourInteractionScore>
-0.989347 

> <ConfScore>
0.80763 

> <ConfScorePBest>
0.00293515 

> <ConfTolerance>
0.137674 

$$$$
*****
  PyMOL2.5          3D                             0

 15 14  0  0  0  0  0  0  0  0999 V2000
    4.3071    5.5084    0.1740 C   0  0  0  1  0  0  0  0  0  0  0  0
    2.9432    6.0209    0.1228 C   0  0  0  1  0  0  0  0  0  0  0  0
    4.7339    4.8775   -0.8099 O   0  0  0  1  0  0  0  0  0  0  0  0
    2.2823    6.3312   -0.9720 C   0  0  0  1  0  0  0  0  0  0  0  0
    4.9693    5.7426    1.2257 O   0  0  0  1  0  0  0  0  0  0  0  0
    1.2335    7.4097   -1.0248 C   0  0  0  1  0  0  0  0  0  0  0  0
    1.4213    8.3663   -2.1910 C   0  0  0  1  0  0  0  0  0  0  0  0
    2.4504    6.1527    1.0291 H   0  0  0  1  0  0  0  0  0  0  0  0
    2.4950    5.8053   -1.8437 H   0  0  0  1  0  0  0  0  0  0  0  0
    5.2646    6.6560    1.2217 H   0  0  0  1  0  0  0  0  0  0  0  0
    1.2754    7.9703   -0.1144 H   0  0  0  1  0  0  0  0  0  0  0  0
    0.2731    6.9467   -1.1153 H   0  0  0  1  0  0  0  0  0  0  0  0
    0.6717    9.1287   -2.1519 H   0  0  0  1  0  0  0  0  0  0  0  0
    1.3342    7.8276   -3.1114 H   0  0  0  1  0  0  0  0  0  0  0  0
    2.3904    8.8159   -2.1307 H   0  0  0  1  0  0  0  0  0  0  0  0
  1  2  1  0  0  0  0
  1  3  2  0  0  0  0
  1  5  1  0  0  0  0
  2  4  2  0  0  0  0
  2  8  1  0  0  0  0
  4  6  1  0  0  0  0
  4  9  1  0  0  0  0
  5 10  1  0  0  0  0
  6  7  1  0  0  0  0
  6 11  1  0  0  0  0
  6 12  1  0  0  0  0
  7 13  1  0  0  0  0
  7 14  1  0  0  0  0
  7 15  1  0  0  0  0
M  END
> <ConfClashScore>
0 

> <ConfOneFourInteractionScore>
-0.989347 

> <ConfScore>
0.818215 

> <ConfScorePBest>
0.00290666 

> <ConfTolerance>
0.0780343 

$$$$
*****
  PyMOL2.5          3D                             0

 15 14  0  0  0  0  0  0  0  0999 V2000
    4.2308    5.3227    0.4322 C   0  0  0  1  0  0  0  0  0  0  0  0
    2.9078    5.5944   -0.1182 C   0  0  0  1  0  0  0  0  0  0  0  0
    4.4300    4.2137    0.9602 O   0  0  0  1  0  0  0  0  0  0  0  0
    2.6248    6.7056   -0.7988 C   0  0  0  1  0  0  0  0  0  0  0  0
    5.0935    6.2423    0.3339 O   0  0  0  1  0  0  0  0  0  0  0  0
    1.2242    7.2530   -0.7315 C   0  0  0  1  0  0  0  0  0  0  0  0
    0.4749    7.1352   -2.0488 C   0  0  0  1  0  0  0  0  0  0  0  0
    2.1541    4.8926    0.0262 H   0  0  0  1  0  0  0  0  0  0  0  0
    3.3557    7.1835   -1.3637 H   0  0  0  1  0  0  0  0  0  0  0  0
    4.6582    7.0966    0.3829 H   0  0  0  1  0  0  0  0  0  0  0  0
    1.2752    8.2867   -0.4600 H   0  0  0  1  0  0  0  0  0  0  0  0
    0.6832    6.7133    0.0174 H   0  0  0  1  0  0  0  0  0  0  0  0
    0.0144    8.0722   -2.2827 H   0  0  0  1  0  0  0  0  0  0  0  0
   -0.2777    6.3793   -1.9643 H   0  0  0  1  0  0  0  0  0  0  0  0
    1.1607    6.8711   -2.8265 H   0  0  0  1  0  0  0  0  0  0  0  0
  1  2  1  0  0  0  0
  1  3  2  0  0  0  0
  1  5  1  0  0  0  0
  2  4  2  0  0  0  0
  2  8  1  0  0  0  0
  4  6  1  0  0  0  0
  4  9  1  0  0  0  0
  5 10  1  0  0  0  0
  6  7  1  0  0  0  0
  6 11  1  0  0  0  0
  6 12  1  0  0  0  0
  7 13  1  0  0  0  0
  7 14  1  0  0  0  0
  7 15  1  0  0  0  0
M  END
> <ConfClashScore>
0 

> <ConfOneFourInteractionScore>
-0.989347 

> <ConfScore>
0.820012 

> <ConfScorePBest>
0.00287818 

> <ConfTolerance>
0.100362 

$$$$
*****
  PyMOL2.5          3D                             0

 15 14  0  0  0  0  0  0  0  0999 V2000
    4.1872    5.3266    0.5587 C   0  0  0  1  0  0  0  0  0  0  0  0
    2.9342    5.6050   -0.1364 C   0  0  0  1  0  0  0  0  0  0  0  0
    4.3960    4.2459    1.0958 O   0  0  0  1  0  0  0  0  0  0  0  0
    2.5509    6.7333   -0.6793 C   0  0  0  1  0  0  0  0  0  0  0  0
    5.0415    6.3083    0.5556 O   0  0  0  1  0  0  0  0  0  0  0  0
    1.1402    7.2399   -0.8182 C   0  0  0  1  0  0  0  0  0  0  0  0
    1.0656    8.7430   -1.0316 C   0  0  0  1  0  0  0  0  0  0  0  0
    2.2655    4.8118   -0.2094 H   0  0  0  1  0  0  0  0  0  0  0  0
    3.3026    7.3459   -1.0552 H   0  0  0  1  0  0  0  0  0  0  0  0
    4.8612    6.8877   -0.1884 H   0  0  0  1  0  0  0  0  0  0  0  0
    0.6012    6.9954    0.0732 H   0  0  0  1  0  0  0  0  0  0  0  0
    0.6847    6.7540   -1.6557 H   0  0  0  1  0  0  0  0  0  0  0  0
    1.6893    9.2367   -0.3160 H   0  0  0  1  0  0  0  0  0  0  0  0
    0.0544    9.0707   -0.9093 H   0  0  0  1  0  0  0  0  0  0  0  0
    1.4007    8.9797   -2.0199 H   0  0  0  1  0  0  0  0  0  0  0  0
  1  2  1  0  0  0  0
  1  3  2  0  0  0  0
  1  5  1  0  0  0  0
  2  4  2  0  0  0  0
  2  8  1  0  0  0  0
  4  6  1  0  0  0  0
  4  9  1  0  0  0  0
  5 10  1  0  0  0  0
  6  7  1  0  0  0  0
  6 11  1  0  0  0  0
  6 12  1  0  0  0  0
  7 13  1  0  0  0  0
  7 14  1  0  0  0  0
  7 15  1  0  0  0  0
M  END
> <ConfClashScore>
0 

> <ConfOneFourInteractionScore>
-0.965547 

> <ConfScore>
0.831498 

> <ConfScorePBest>
0.0028497 

> <ConfTolerance>
0.0745667 

$$$$
*****
  PyMOL2.5          3D                             0

 15 14  0  0  0  0  0  0  0  0999 V2000
    4.2230    5.8049    0.3373 C   0  0  0  1  0  0  0  0  0  0  0  0
    3.0481    5.9152   -0.5188 C   0  0  0  1  0  0  0  0  0  0  0  0
    4.3129    6.4271    1.3778 O   0  0  0  1  0  0  0  0  0  0  0  0
    2.0970    6.8104   -0.3983 C   0  0  0  1  0  0  0  0  0  0  0  0
    5.1446    4.9988   -0.1038 O   0  0  0  1  0  0  0  0  0  0  0  0
    0.6563    6.5916   -0.7755 C   0  0  0  1  0  0  0  0  0  0  0  0
    0.3279    6.8040   -2.2444 C   0  0  0  1  0  0  0  0  0  0  0  0
    2.9562    5.2249   -1.2913 H   0  0  0  1  0  0  0  0  0  0  0  0
    2.3578    7.7407   -0.0134 H   0  0  0  1  0  0  0  0  0  0  0  0
    5.8833    4.9906    0.5092 H   0  0  0  1  0  0  0  0  0  0  0  0
    0.0585    7.2691   -0.2024 H   0  0  0  1  0  0  0  0  0  0  0  0
    0.3978    5.5848   -0.5218 H   0  0  0  1  0  0  0  0  0  0  0  0
   -0.6725    6.4773   -2.4376 H   0  0  0  1  0  0  0  0  0  0  0  0
    1.0094    6.2408   -2.8470 H   0  0  0  1  0  0  0  0  0  0  0  0
    0.4156    7.8435   -2.4825 H   0  0  0  1  0  0  0  0  0  0  0  0
  1  2  1  0  0  0  0
  1  3  2  0  0  0  0
  1  5  1  0  0  0  0
  2  4  2  0  0  0  0
  2  8  1  0  0  0  0
  4  6  1  0  0  0  0
  4  9  1  0  0  0  0
  5 10  1  0  0  0  0
  6  7  1  0  0  0  0
  6 11  1  0  0  0  0
  6 12  1  0  0  0  0
  7 13  1  0  0  0  0
  7 14  1  0  0  0  0
  7 15  1  0  0  0  0
M  END
> <ConfClashScore>
0 

> <ConfOneFourInteractionScore>
-0.989347 

> <ConfScore>
0.837901 

> <ConfScorePBest>
0.00282122 

> <ConfTolerance>
0.081625 

$$$$
*****
  PyMOL2.5          3D                             0

 15 14  0  0  0  0  0  0  0  0999 V2000
    4.2824    5.8607    0.4539 C   0  0  0  1  0  0  0  0  0  0  0  0
    3.2660    6.2380   -0.5207 C   0  0  0  1  0  0  0  0  0  0  0  0
    4.1071    6.0142    1.6515 O   0  0  0  1  0  0  0  0  0  0  0  0
    2.0773    6.7152   -0.2382 C   0  0  0  1  0  0  0  0  0  0  0  0
    5.3678    5.3573   -0.0582 O   0  0  0  1  0  0  0  0  0  0  0  0
    0.8446    6.5068   -1.0767 C   0  0  0  1  0  0  0  0  0  0  0  0
    0.8253    5.1609   -1.7828 C   0  0  0  1  0  0  0  0  0  0  0  0
    3.5038    6.1187   -1.5261 H   0  0  0  1  0  0  0  0  0  0  0  0
    1.9791    7.2795    0.6298 H   0  0  0  1  0  0  0  0  0  0  0  0
    5.2512    4.4139   -0.1922 H   0  0  0  1  0  0  0  0  0  0  0  0
    0.8006    7.2796   -1.8155 H   0  0  0  1  0  0  0  0  0  0  0  0
   -0.0141    6.5706   -0.4416 H   0  0  0  1  0  0  0  0  0  0  0  0
    1.7140    5.0522   -2.3687 H   0  0  0  1  0  0  0  0  0  0  0  0
   -0.0316    5.1057   -2.4213 H   0  0  0  1  0  0  0  0  0  0  0  0
    0.7798    4.3775   -1.0555 H   0  0  0  1  0  0  0  0  0  0  0  0
  1  2  1  0  0  0  0
  1  3  2  0  0  0  0
  1  5  1  0  0  0  0
  2  4  2  0  0  0  0
  2  8  1  0  0  0  0
  4  6  1  0  0  0  0
  4  9  1  0  0  0  0
  5 10  1  0  0  0  0
  6  7  1  0  0  0  0
  6 11  1  0  0  0  0
  6 12  1  0  0  0  0
  7 13  1  0  0  0  0
  7 14  1  0  0  0  0
  7 15  1  0  0  0  0
M  END
> <ConfClashScore>
0 

> <ConfOneFourInteractionScore>
-0.971698 

> <ConfScore>
0.853938 

> <ConfScorePBest>
0.00279274 

> <ConfTolerance>
0.0728028 

$$$$
*****
  PyMOL2.5          3D                             0

 15 14  0  0  0  0  0  0  0  0999 V2000
    4.1681    5.5776    0.5300 C   0  0  0  1  0  0  0  0  0  0  0  0
    3.1076    5.9215   -0.4131 C   0  0  0  1  0  0  0  0  0  0  0  0
    4.0533    5.7930    1.7302 O   0  0  0  1  0  0  0  0  0  0  0  0
    2.1261    6.7866   -0.3196 C   0  0  0  1  0  0  0  0  0  0  0  0
    5.2209    5.0345   -0.0086 O   0  0  0  1  0  0  0  0  0  0  0  0
    0.7901    6.6385   -0.9757 C   0  0  0  1  0  0  0  0  0  0  0  0
    0.5135    7.7146   -2.0129 C   0  0  0  1  0  0  0  0  0  0  0  0
    3.1352    5.3923   -1.3080 H   0  0  0  1  0  0  0  0  0  0  0  0
    2.2890    7.6390    0.2534 H   0  0  0  1  0  0  0  0  0  0  0  0
    5.7888    5.7213   -0.3654 H   0  0  0  1  0  0  0  0  0  0  0  0
    0.0328    6.6896   -0.2216 H   0  0  0  1  0  0  0  0  0  0  0  0
    0.7510    5.6836   -1.4570 H   0  0  0  1  0  0  0  0  0  0  0  0
   -0.4762    7.5914   -2.4003 H   0  0  0  1  0  0  0  0  0  0  0  0
    1.2215    7.6310   -2.8108 H   0  0  0  1  0  0  0  0  0  0  0  0
    0.6006    8.6791   -1.5578 H   0  0  0  1  0  0  0  0  0  0  0  0
  1  2  1  0  0  0  0
  1  3  2  0  0  0  0
  1  5  1  0  0  0  0
  2  4  2  0  0  0  0
  2  8  1  0  0  0  0
  4  6  1  0  0  0  0
  4  9  1  0  0  0  0
  5 10  1  0  0  0  0
  6  7  1  0  0  0  0
  6 11  1  0  0  0  0
  6 12  1  0  0  0  0
  7 13  1  0  0  0  0
  7 14  1  0  0  0  0
  7 15  1  0  0  0  0
M  END
> <ConfClashScore>
0 

> <ConfOneFourInteractionScore>
-0.989347 

> <ConfScore>
0.855005 

> <ConfScorePBest>
0.00276426 

> <ConfTolerance>
0.121794 

$$$$
*****
  PyMOL2.5          3D                             0

 15 14  0  0  0  0  0  0  0  0999 V2000
    4.1310    5.6260    0.5591 C   0  0  0  1  0  0  0  0  0  0  0  0
    3.1356    5.8766   -0.4769 C   0  0  0  1  0  0  0  0  0  0  0  0
    3.9531    5.8635    1.7380 O   0  0  0  1  0  0  0  0  0  0  0  0
    2.1703    6.7013   -0.3228 C   0  0  0  1  0  0  0  0  0  0  0  0
    5.2559    5.1125    0.1006 O   0  0  0  1  0  0  0  0  0  0  0  0
    0.7700    6.7419   -0.8737 C   0  0  0  1  0  0  0  0  0  0  0  0
    0.3852    8.1063   -1.4222 C   0  0  0  1  0  0  0  0  0  0  0  0
    3.2140    5.3636   -1.3781 H   0  0  0  1  0  0  0  0  0  0  0  0
    2.3967    7.4989    0.3051 H   0  0  0  1  0  0  0  0  0  0  0  0
    5.6526    5.7200   -0.5281 H   0  0  0  1  0  0  0  0  0  0  0  0
    0.0881    6.4852   -0.0901 H   0  0  0  1  0  0  0  0  0  0  0  0
    0.6936    6.0236   -1.6631 H   0  0  0  1  0  0  0  0  0  0  0  0
    0.4177    8.8299   -0.6347 H   0  0  0  1  0  0  0  0  0  0  0  0
   -0.6051    8.0621   -1.8250 H   0  0  0  1  0  0  0  0  0  0  0  0
    1.0721    8.3872   -2.1930 H   0  0  0  1  0  0  0  0  0  0  0  0
  1  2  1  0  0  0  0
  1  3  2  0  0  0  0
  1  5  1  0  0  0  0
  2  4  2  0  0  0  0
  2  8  1  0  0  0  0
  4  6  1  0  0  0  0
  4  9  1  0  0  0  0
  5 10  1  0  0  0  0
  6  7  1  0  0  0  0
  6 11  1  0  0  0  0
  6 12  1  0  0  0  0
  7 13  1  0  0  0  0
  7 14  1  0  0  0  0
  7 15  1  0  0  0  0
M  END
> <ConfClashScore>
0 

> <ConfOneFourInteractionScore>
-0.989347 

> <ConfScore>
0.869251 

> <ConfScorePBest>
0.00273578 

> <ConfTolerance>
0.184081 

$$$$
*****
  PyMOL2.5          3D                             0

 15 14  0  0  0  0  0  0  0  0999 V2000
    4.2117    5.3597    0.3284 C   0  0  0  1  0  0  0  0  0  0  0  0
    2.8593    5.6481   -0.1390 C   0  0  0  1  0  0  0  0  0  0  0  0
    4.5142    4.3115    0.8851 O   0  0  0  1  0  0  0  0  0  0  0  0
    2.4529    6.6821   -0.8364 C   0  0  0  1  0  0  0  0  0  0  0  0
    5.1206    6.2931    0.1243 O   0  0  0  1  0  0  0  0  0  0  0  0
    1.0774    7.2882   -0.7551 C   0  0  0  1  0  0  0  0  0  0  0  0
    0.1067    6.5788    0.1748 C   0  0  0  1  0  0  0  0  0  0  0  0
    2.1302    4.9499    0.1109 H   0  0  0  1  0  0  0  0  0  0  0  0
    3.1317    7.1154   -1.4945 H   0  0  0  1  0  0  0  0  0  0  0  0
    5.1813    6.8562    0.8994 H   0  0  0  1  0  0  0  0  0  0  0  0
    0.6559    7.2832   -1.7385 H   0  0  0  1  0  0  0  0  0  0  0  0
    1.1811    8.2978   -0.4161 H   0  0  0  1  0  0  0  0  0  0  0  0
    0.3518    6.8094    1.1905 H   0  0  0  1  0  0  0  0  0  0  0  0
    0.1754    5.5219    0.0228 H   0  0  0  1  0  0  0  0  0  0  0  0
   -0.8905    6.9056   -0.0342 H   0  0  0  1  0  0  0  0  0  0  0  0
  1  2  1  0  0  0  0
  1  3  2  0  0  0  0
  1  5  1  0  0  0  0
  2  4  2  0  0  0  0
  2  8  1  0  0  0  0
  4  6  1  0  0  0  0
  4  9  1  0  0  0  0
  5 10  1  0  0  0  0
  6  7  1  0  0  0  0
  6 11  1  0  0  0  0
  6 12  1  0  0  0  0
  7 13  1  0  0  0  0
  7 14  1  0  0  0  0
  7 15  1  0  0  0  0
M  END
> <ConfClashScore>
0 

> <ConfOneFourInteractionScore>
-0.971698 

> <ConfScore>
0.880166 

> <ConfScorePBest>
0.0027073 

> <ConfTolerance>
0.0926978 

$$$$
*****
  PyMOL2.5          3D                             0

 15 14  0  0  0  0  0  0  0  0999 V2000
    4.1832    5.6263    0.5387 C   0  0  0  1  0  0  0  0  0  0  0  0
    3.1625    6.0069   -0.4329 C   0  0  0  1  0  0  0  0  0  0  0  0
    4.1486    5.9899    1.6897 O   0  0  0  1  0  0  0  0  0  0  0  0
    2.0860    6.8358   -0.2411 C   0  0  0  1  0  0  0  0  0  0  0  0
    5.1007    4.8690    0.0111 O   0  0  0  1  0  0  0  0  0  0  0  0
    0.8656    6.5323   -1.0684 C   0  0  0  1  0  0  0  0  0  0  0  0
   -0.1112    7.6948   -1.1373 C   0  0  0  1  0  0  0  0  0  0  0  0
    3.2633    5.6009   -1.3851 H   0  0  0  1  0  0  0  0  0  0  0  0
    2.1117    7.6258    0.4349 H   0  0  0  1  0  0  0  0  0  0  0  0
    5.7577    5.4175   -0.4239 H   0  0  0  1  0  0  0  0  0  0  0  0
    0.3636    5.6906   -0.6389 H   0  0  0  1  0  0  0  0  0  0  0  0
    1.1794    6.2918   -2.0627 H   0  0  0  1  0  0  0  0  0  0  0  0
    0.0933    8.2821   -2.0080 H   0  0  0  1  0  0  0  0  0  0  0  0
   -0.0034    8.3032   -0.2637 H   0  0  0  1  0  0  0  0  0  0  0  0
   -1.1112    7.3176   -1.1886 H   0  0  0  1  0  0  0  0  0  0  0  0
  1  2  1  0  0  0  0
  1  3  2  0  0  0  0
  1  5  1  0  0  0  0
  2  4  2  0  0  0  0
  2  8  1  0  0  0  0
  4  6  1  0  0  0  0
  4  9  1  0  0  0  0
  5 10  1  0  0  0  0
  6  7  1  0  0  0  0
  6 11  1  0  0  0  0
  6 12  1  0  0  0  0
  7 13  1  0  0  0  0
  7 14  1  0  0  0  0
  7 15  1  0  0  0  0
M  END
> <ConfClashScore>
0 

> <ConfOneFourInteractionScore>
-0.965547 

> <ConfScore>
0.881448 

> <ConfScorePBest>
0.00267882 

> <ConfTolerance>
0.130051 

$$$$
*****
  PyMOL2.5          3D                             0

 15 14  0  0  0  0  0  0  0  0999 V2000
    4.1558    5.3624    0.4932 C   0  0  0  1  0  0  0  0  0  0  0  0
    2.8401    5.6207   -0.0791 C   0  0  0  1  0  0  0  0  0  0  0  0
    4.6130    4.2484    0.6595 O   0  0  0  1  0  0  0  0  0  0  0  0
    2.5012    6.6872   -0.7633 C   0  0  0  1  0  0  0  0  0  0  0  0
    4.8162    6.4564    0.8193 O   0  0  0  1  0  0  0  0  0  0  0  0
    1.1287    7.2809   -0.7978 C   0  0  0  1  0  0  0  0  0  0  0  0
    1.0819    8.7038   -0.2655 C   0  0  0  1  0  0  0  0  0  0  0  0
    2.1074    4.8973    0.0677 H   0  0  0  1  0  0  0  0  0  0  0  0
    3.2421    7.1550   -1.3236 H   0  0  0  1  0  0  0  0  0  0  0  0
    5.2748    6.7960    0.0473 H   0  0  0  1  0  0  0  0  0  0  0  0
    0.4797    6.6731   -0.2026 H   0  0  0  1  0  0  0  0  0  0  0  0
    0.7847    7.2847   -1.8110 H   0  0  0  1  0  0  0  0  0  0  0  0
    0.0761    9.0668   -0.3045 H   0  0  0  1  0  0  0  0  0  0  0  0
    1.7100    9.3294   -0.8648 H   0  0  0  1  0  0  0  0  0  0  0  0
    1.4266    8.7170    0.7473 H   0  0  0  1  0  0  0  0  0  0  0  0
  1  2  1  0  0  0  0
  1  3  2  0  0  0  0
  1  5  1  0  0  0  0
  2  4  2  0  0  0  0
  2  8  1  0  0  0  0
  4  6  1  0  0  0  0
  4  9  1  0  0  0  0
  5 10  1  0  0  0  0
  6  7  1  0  0  0  0
  6 11  1  0  0  0  0
  6 12  1  0  0  0  0
  7 13  1  0  0  0  0
  7 14  1  0  0  0  0
  7 15  1  0  0  0  0
M  END
> <ConfClashScore>
0 

> <ConfOneFourInteractionScore>
-0.989347 

> <ConfScore>
0.894578 

> <ConfScorePBest>
0.00265034 

> <ConfTolerance>
0.0876329 

$$$$
*****
  PyMOL2.5          3D                             0

 15 14  0  0  0  0  0  0  0  0999 V2000
    4.2123    5.6640    0.5715 C   0  0  0  1  0  0  0  0  0  0  0  0
    3.2220    6.0147   -0.4394 C   0  0  0  1  0  0  0  0  0  0  0  0
    3.8366    5.5745    1.7544 O   0  0  0  1  0  0  0  0  0  0  0  0
    2.1632    6.7713   -0.2442 C   0  0  0  1  0  0  0  0  0  0  0  0
    5.3971    5.4730    0.1726 O   0  0  0  1  0  0  0  0  0  0  0  0
    0.8765    6.6022   -1.0069 C   0  0  0  1  0  0  0  0  0  0  0  0
   -0.3425    6.5056   -0.1041 C   0  0  0  1  0  0  0  0  0  0  0  0
    3.3646    5.6344   -1.3968 H   0  0  0  1  0  0  0  0  0  0  0  0
    2.2181    7.5231    0.4724 H   0  0  0  1  0  0  0  0  0  0  0  0
    5.3886    5.2471   -0.7605 H   0  0  0  1  0  0  0  0  0  0  0  0
    0.9409    5.7068   -1.5892 H   0  0  0  1  0  0  0  0  0  0  0  0
    0.7530    7.4430   -1.6571 H   0  0  0  1  0  0  0  0  0  0  0  0
   -0.2815    5.6140    0.4843 H   0  0  0  1  0  0  0  0  0  0  0  0
   -1.2285    6.4772   -0.7034 H   0  0  0  1  0  0  0  0  0  0  0  0
   -0.3757    7.3576    0.5423 H   0  0  0  1  0  0  0  0  0  0  0  0
  1  2  1  0  0  0  0
  1  3  2  0  0  0  0
  1  5  1  0  0  0  0
  2  4  2  0  0  0  0
  2  8  1  0  0  0  0
  4  6  1  0  0  0  0
  4  9  1  0  0  0  0
  5 10  1  0  0  0  0
  6  7  1  0  0  0  0
  6 11  1  0  0  0  0
  6 12  1  0  0  0  0
  7 13  1  0  0  0  0
  7 14  1  0  0  0  0
  7 15  1  0  0  0  0
M  END
> <ConfClashScore>
0 

> <ConfOneFourInteractionScore>
-0.989347 

> <ConfScore>
0.90107 

> <ConfScorePBest>
0.00262186 

> <ConfTolerance>
0.11239 

$$$$
*****
  PyMOL2.5          3D                             0

 15 14  0  0  0  0  0  0  0  0999 V2000
    4.1718    5.6114    0.5851 C   0  0  0  1  0  0  0  0  0  0  0  0
    3.2186    6.0575   -0.4263 C   0  0  0  1  0  0  0  0  0  0  0  0
    4.0112    5.7711    1.7887 O   0  0  0  1  0  0  0  0  0  0  0  0
    2.1117    6.7372   -0.2438 C   0  0  0  1  0  0  0  0  0  0  0  0
    5.2352    5.0134    0.0843 O   0  0  0  1  0  0  0  0  0  0  0  0
    0.8849    6.6308   -1.1072 C   0  0  0  1  0  0  0  0  0  0  0  0
    0.5889    5.2066   -1.5483 C   0  0  0  1  0  0  0  0  0  0  0  0
    3.4441    5.8061   -1.4099 H   0  0  0  1  0  0  0  0  0  0  0  0
    2.0801    7.3991    0.5578 H   0  0  0  1  0  0  0  0  0  0  0  0
    5.5217    5.4777   -0.7056 H   0  0  0  1  0  0  0  0  0  0  0  0
    1.0285    7.2344   -1.9789 H   0  0  0  1  0  0  0  0  0  0  0  0
    0.0458    6.9971   -0.5534 H   0  0  0  1  0  0  0  0  0  0  0  0
   -0.3480    5.1799   -2.0645 H   0  0  0  1  0  0  0  0  0  0  0  0
    0.5409    4.5702   -0.6895 H   0  0  0  1  0  0  0  0  0  0  0  0
    1.3655    4.8671   -2.2014 H   0  0  0  1  0  0  0  0  0  0  0  0
  1  2  1  0  0  0  0
  1  3  2  0  0  0  0
  1  5  1  0  0  0  0
  2  4  2  0  0  0  0
  2  8  1  0  0  0  0
  4  6  1  0  0  0  0
  4  9  1  0  0  0  0
  5 10  1  0  0  0  0
  6  7  1  0  0  0  0
  6 11  1  0  0  0  0
  6 12  1  0  0  0  0
  7 13  1  0  0  0  0
  7 14  1  0  0  0  0
  7 15  1  0  0  0  0
M  END
> <ConfClashScore>
0 

> <ConfOneFourInteractionScore>
-0.992534 

> <ConfScore>
0.904035 

> <ConfScorePBest>
0.00259338 

> <ConfTolerance>
0.0943151 

$$$$
*****
  PyMOL2.5          3D                             0

 15 14  0  0  0  0  0  0  0  0999 V2000
    4.2071    5.5879    0.5386 C   0  0  0  1  0  0  0  0  0  0  0  0
    3.2289    6.1132   -0.3730 C   0  0  0  1  0  0  0  0  0  0  0  0
    4.0613    5.8191    1.7525 O   0  0  0  1  0  0  0  0  0  0  0  0
    2.0730    6.7236   -0.2224 C   0  0  0  1  0  0  0  0  0  0  0  0
    5.1577    4.9203    0.0386 O   0  0  0  1  0  0  0  0  0  0  0  0
    0.9432    6.6063   -1.2102 C   0  0  0  1  0  0  0  0  0  0  0  0
   -0.1665    5.6807   -0.7385 C   0  0  0  1  0  0  0  0  0  0  0  0
    3.4920    5.9823   -1.3706 H   0  0  0  1  0  0  0  0  0  0  0  0
    1.9330    7.3163    0.6207 H   0  0  0  1  0  0  0  0  0  0  0  0
    5.5830    5.4353   -0.6510 H   0  0  0  1  0  0  0  0  0  0  0  0
    1.3341    6.2274   -2.1313 H   0  0  0  1  0  0  0  0  0  0  0  0
    0.5292    7.5797   -1.3714 H   0  0  0  1  0  0  0  0  0  0  0  0
   -0.2158    5.6980    0.3302 H   0  0  0  1  0  0  0  0  0  0  0  0
    0.0361    4.6837   -1.0699 H   0  0  0  1  0  0  0  0  0  0  0  0
   -1.1008    6.0089   -1.1438 H   0  0  0  1  0  0  0  0  0  0  0  0
  1  2  1  0  0  0  0
  1  3  2  0  0  0  0
  1  5  1  0  0  0  0
  2  4  2  0  0  0  0
  2  8  1  0  0  0  0
  4  6  1  0  0  0  0
  4  9  1  0  0  0  0
  5 10  1  0  0  0  0
  6  7  1  0  0  0  0
  6 11  1  0  0  0  0
  6 12  1  0  0  0  0
  7 13  1  0  0  0  0
  7 14  1  0  0  0  0
  7 15  1  0  0  0  0
M  END
> <ConfClashScore>
0 

> <ConfOneFourInteractionScore>
-0.989347 

> <ConfScore>
0.90438 

> <ConfScorePBest>
0.0025649 

> <ConfTolerance>
0.0834637 

$$$$
*****
  PyMOL2.5          3D                             0

 15 14  0  0  0  0  0  0  0  0999 V2000
    4.2070    5.3447    0.4290 C   0  0  0  1  0  0  0  0  0  0  0  0
    2.9032    5.5656   -0.1860 C   0  0  0  1  0  0  0  0  0  0  0  0
    4.3230    4.4050    1.2364 O   0  0  0  1  0  0  0  0  0  0  0  0
    2.5522    6.7187   -0.7140 C   0  0  0  1  0  0  0  0  0  0  0  0
    5.1396    6.1315    0.0961 O   0  0  0  1  0  0  0  0  0  0  0  0
    1.1321    7.2130   -0.7445 C   0  0  0  1  0  0  0  0  0  0  0  0
    0.8096    8.3294    0.2355 C   0  0  0  1  0  0  0  0  0  0  0  0
    2.2228    4.7794   -0.2083 H   0  0  0  1  0  0  0  0  0  0  0  0
    3.2932    7.3177   -1.1307 H   0  0  0  1  0  0  0  0  0  0  0  0
    4.9061    7.0287    0.3452 H   0  0  0  1  0  0  0  0  0  0  0  0
    0.4898    6.3858   -0.5254 H   0  0  0  1  0  0  0  0  0  0  0  0
    0.9285    7.5716   -1.7319 H   0  0  0  1  0  0  0  0  0  0  0  0
    1.0640    8.0186    1.2272 H   0  0  0  1  0  0  0  0  0  0  0  0
   -0.2356    8.5533    0.1892 H   0  0  0  1  0  0  0  0  0  0  0  0
    1.3736    9.2020   -0.0202 H   0  0  0  1  0  0  0  0  0  0  0  0
  1  2  1  0  0  0  0
  1  3  2  0  0  0  0
  1  5  1  0  0  0  0
  2  4  2  0  0  0  0
  2  8  1  0  0  0  0
  4  6  1  0  0  0  0
  4  9  1  0  0  0  0
  5 10  1  0  0  0  0
  6  7  1  0  0  0  0
  6 11  1  0  0  0  0
  6 12  1  0  0  0  0
  7 13  1  0  0  0  0
  7 14  1  0  0  0  0
  7 15  1  0  0  0  0
M  END
> <ConfClashScore>
0 

> <ConfOneFourInteractionScore>
-0.989347 

> <ConfScore>
0.908795 

> <ConfScorePBest>
0.00253641 

> <ConfTolerance>
0.0956917 

$$$$
*****
  PyMOL2.5          3D                             0

 15 14  0  0  0  0  0  0  0  0999 V2000
    4.1957    5.6756    0.4307 C   0  0  0  1  0  0  0  0  0  0  0  0
    3.0796    5.9090   -0.4806 C   0  0  0  1  0  0  0  0  0  0  0  0
    4.1671    6.2263    1.5462 O   0  0  0  1  0  0  0  0  0  0  0  0
    2.0988    6.7661   -0.3458 C   0  0  0  1  0  0  0  0  0  0  0  0
    5.1245    4.9221    0.0198 O   0  0  0  1  0  0  0  0  0  0  0  0
    0.6910    6.6217   -0.8589 C   0  0  0  1  0  0  0  0  0  0  0  0
    0.6889    6.3124   -2.3471 C   0  0  0  1  0  0  0  0  0  0  0  0
    3.0611    5.3242   -1.3405 H   0  0  0  1  0  0  0  0  0  0  0  0
    2.3160    7.6415    0.1720 H   0  0  0  1  0  0  0  0  0  0  0  0
    5.9456    5.4179   -0.0198 H   0  0  0  1  0  0  0  0  0  0  0  0
    0.1605    7.5353   -0.6897 H   0  0  0  1  0  0  0  0  0  0  0  0
    0.2064    5.8249   -0.3343 H   0  0  0  1  0  0  0  0  0  0  0  0
    1.3808    5.5215   -2.5485 H   0  0  0  1  0  0  0  0  0  0  0  0
    0.9775    7.1862   -2.8931 H   0  0  0  1  0  0  0  0  0  0  0  0
   -0.2932    6.0118   -2.6473 H   0  0  0  1  0  0  0  0  0  0  0  0
  1  2  1  0  0  0  0
  1  3  2  0  0  0  0
  1  5  1  0  0  0  0
  2  4  2  0  0  0  0
  2  8  1  0  0  0  0
  4  6  1  0  0  0  0
  4  9  1  0  0  0  0
  5 10  1  0  0  0  0
  6  7  1  0  0  0  0
  6 11  1  0  0  0  0
  6 12  1  0  0  0  0
  7 13  1  0  0  0  0
  7 14  1  0  0  0  0
  7 15  1  0  0  0  0
M  END
> <ConfClashScore>
0 

> <ConfOneFourInteractionScore>
-0.992534 

> <ConfScore>
0.915286 

> <ConfScorePBest>
0.00250793 

> <ConfTolerance>
0.123562 

$$$$
*****
  PyMOL2.5          3D                             0

 15 14  0  0  0  0  0  0  0  0999 V2000
    4.2053    5.8528    0.3652 C   0  0  0  1  0  0  0  0  0  0  0  0
    3.0484    5.8830   -0.5307 C   0  0  0  1  0  0  0  0  0  0  0  0
    4.5152    6.7710    1.0990 O   0  0  0  1  0  0  0  0  0  0  0  0
    2.1298    6.8098   -0.3971 C   0  0  0  1  0  0  0  0  0  0  0  0
    4.8918    4.7283    0.3068 O   0  0  0  1  0  0  0  0  0  0  0  0
    0.6731    6.6325   -0.7324 C   0  0  0  1  0  0  0  0  0  0  0  0
    0.3224    5.2076   -1.1286 C   0  0  0  1  0  0  0  0  0  0  0  0
    2.9540    5.1654   -1.2775 H   0  0  0  1  0  0  0  0  0  0  0  0
    2.4304    7.7363   -0.0325 H   0  0  0  1  0  0  0  0  0  0  0  0
    5.8313    4.9252    0.3223 H   0  0  0  1  0  0  0  0  0  0  0  0
    0.4295    7.2823   -1.5469 H   0  0  0  1  0  0  0  0  0  0  0  0
    0.0913    6.9007    0.1247 H   0  0  0  1  0  0  0  0  0  0  0  0
   -0.7174    5.0320   -0.9472 H   0  0  0  1  0  0  0  0  0  0  0  0
    0.9059    4.5228   -0.5494 H   0  0  0  1  0  0  0  0  0  0  0  0
    0.5319    5.0649   -2.1682 H   0  0  0  1  0  0  0  0  0  0  0  0
  1  2  1  0  0  0  0
  1  3  2  0  0  0  0
  1  5  1  0  0  0  0
  2  4  2  0  0  0  0
  2  8  1  0  0  0  0
  4  6  1  0  0  0  0
  4  9  1  0  0  0  0
  5 10  1  0  0  0  0
  6  7  1  0  0  0  0
  6 11  1  0  0  0  0
  6 12  1  0  0  0  0
  7 13  1  0  0  0  0
  7 14  1  0  0  0  0
  7 15  1  0  0  0  0
M  END
> <ConfClashScore>
0 

> <ConfOneFourInteractionScore>
-0.971698 

> <ConfScore>
0.922249 

> <ConfScorePBest>
0.00247945 

> <ConfTolerance>
0.128132 

$$$$
*****
  PyMOL2.5          3D                             0

 15 14  0  0  0  0  0  0  0  0999 V2000
    4.2275    5.7739    0.5185 C   0  0  0  1  0  0  0  0  0  0  0  0
    3.2793    6.1459   -0.5324 C   0  0  0  1  0  0  0  0  0  0  0  0
    3.8860    5.8998    1.7013 O   0  0  0  1  0  0  0  0  0  0  0  0
    2.1238    6.6789   -0.2236 C   0  0  0  1  0  0  0  0  0  0  0  0
    5.3828    5.3289    0.1921 O   0  0  0  1  0  0  0  0  0  0  0  0
    0.8325    6.5498   -0.9864 C   0  0  0  1  0  0  0  0  0  0  0  0
    0.1829    5.1844   -0.8308 C   0  0  0  1  0  0  0  0  0  0  0  0
    3.5247    5.9859   -1.5303 H   0  0  0  1  0  0  0  0  0  0  0  0
    2.0950    7.2537    0.6426 H   0  0  0  1  0  0  0  0  0  0  0  0
    5.3277    4.8876   -0.6587 H   0  0  0  1  0  0  0  0  0  0  0  0
    1.0321    6.7156   -2.0245 H   0  0  0  1  0  0  0  0  0  0  0  0
    0.1508    7.2938   -0.6305 H   0  0  0  1  0  0  0  0  0  0  0  0
   -0.7541    5.1736   -1.3474 H   0  0  0  1  0  0  0  0  0  0  0  0
    0.0198    4.9835    0.2075 H   0  0  0  1  0  0  0  0  0  0  0  0
    0.8257    4.4348   -1.2429 H   0  0  0  1  0  0  0  0  0  0  0  0
  1  2  1  0  0  0  0
  1  3  2  0  0  0  0
  1  5  1  0  0  0  0
  2  4  2  0  0  0  0
  2  8  1  0  0  0  0
  4  6  1  0  0  0  0
  4  9  1  0  0  0  0
  5 10  1  0  0  0  0
  6  7  1  0  0  0  0
  6 11  1  0  0  0  0
  6 12  1  0  0  0  0
  7 13  1  0  0  0  0
  7 14  1  0  0  0  0
  7 15  1  0  0  0  0
M  END
> <ConfClashScore>
0 

> <ConfOneFourInteractionScore>
-0.989347 

> <ConfScore>
0.948128 

> <ConfScorePBest>
0.00245097 

> <ConfTolerance>
0.151961 

$$$$
*****
  PyMOL2.5          3D                             0

 15 14  0  0  0  0  0  0  0  0999 V2000
    4.1510    5.4105    0.5178 C   0  0  0  1  0  0  0  0  0  0  0  0
    2.8605    5.6366   -0.1258 C   0  0  0  1  0  0  0  0  0  0  0  0
    4.5130    4.2893    0.8524 O   0  0  0  1  0  0  0  0  0  0  0  0
    2.4354    6.7284   -0.7105 C   0  0  0  1  0  0  0  0  0  0  0  0
    4.8646    6.4837    0.6991 O   0  0  0  1  0  0  0  0  0  0  0  0
    1.0130    7.2123   -0.8040 C   0  0  0  1  0  0  0  0  0  0  0  0
    0.0391    6.0547   -0.6566 C   0  0  0  1  0  0  0  0  0  0  0  0
    2.1992    4.8340   -0.1191 H   0  0  0  1  0  0  0  0  0  0  0  0
    3.1588    7.3260   -1.1589 H   0  0  0  1  0  0  0  0  0  0  0  0
    5.4837    6.5834   -0.0278 H   0  0  0  1  0  0  0  0  0  0  0  0
    0.8628    7.6782   -1.7555 H   0  0  0  1  0  0  0  0  0  0  0  0
    0.8326    7.9239   -0.0255 H   0  0  0  1  0  0  0  0  0  0  0  0
    0.2078    5.5629    0.2785 H   0  0  0  1  0  0  0  0  0  0  0  0
    0.1876    5.3599   -1.4567 H   0  0  0  1  0  0  0  0  0  0  0  0
   -0.9638    6.4265   -0.6880 H   0  0  0  1  0  0  0  0  0  0  0  0
  1  2  1  0  0  0  0
  1  3  2  0  0  0  0
  1  5  1  0  0  0  0
  2  4  2  0  0  0  0
  2  8  1  0  0  0  0
  4  6  1  0  0  0  0
  4  9  1  0  0  0  0
  5 10  1  0  0  0  0
  6  7  1  0  0  0  0
  6 11  1  0  0  0  0
  6 12  1  0  0  0  0
  7 13  1  0  0  0  0
  7 14  1  0  0  0  0
  7 15  1  0  0  0  0
M  END
> <ConfClashScore>
0 

> <ConfOneFourInteractionScore>
-0.971698 

> <ConfScore>
0.951116 

> <ConfScorePBest>
0.00242249 

> <ConfTolerance>
0.21606 

$$$$
*****
  PyMOL2.5          3D                             0

 15 14  0  0  0  0  0  0  0  0999 V2000
    4.1967    5.5998    0.6049 C   0  0  0  1  0  0  0  0  0  0  0  0
    3.3033    6.1883   -0.3882 C   0  0  0  1  0  0  0  0  0  0  0  0
    3.9339    5.5876    1.7916 O   0  0  0  1  0  0  0  0  0  0  0  0
    2.0930    6.6694   -0.2000 C   0  0  0  1  0  0  0  0  0  0  0  0
    5.2729    5.1087    0.0625 O   0  0  0  1  0  0  0  0  0  0  0  0
    1.0206    6.6396   -1.2549 C   0  0  0  1  0  0  0  0  0  0  0  0
   -0.3892    7.0224   -0.8352 C   0  0  0  1  0  0  0  0  0  0  0  0
    3.6670    6.2329   -1.3615 H   0  0  0  1  0  0  0  0  0  0  0  0
    1.8666    7.0909    0.7234 H   0  0  0  1  0  0  0  0  0  0  0  0
    5.3253    5.3872   -0.8547 H   0  0  0  1  0  0  0  0  0  0  0  0
    0.9799    5.6429   -1.6420 H   0  0  0  1  0  0  0  0  0  0  0  0
    1.3172    7.3127   -2.0320 H   0  0  0  1  0  0  0  0  0  0  0  0
   -0.7252    7.8497   -1.4248 H   0  0  0  1  0  0  0  0  0  0  0  0
   -0.3908    7.2978    0.1988 H   0  0  0  1  0  0  0  0  0  0  0  0
   -1.0440    6.1894   -0.9840 H   0  0  0  1  0  0  0  0  0  0  0  0
  1  2  1  0  0  0  0
  1  3  2  0  0  0  0
  1  5  1  0  0  0  0
  2  4  2  0  0  0  0
  2  8  1  0  0  0  0
  4  6  1  0  0  0  0
  4  9  1  0  0  0  0
  5 10  1  0  0  0  0
  6  7  1  0  0  0  0
  6 11  1  0  0  0  0
  6 12  1  0  0  0  0
  7 13  1  0  0  0  0
  7 14  1  0  0  0  0
  7 15  1  0  0  0  0
M  END
> <ConfClashScore>
0 

> <ConfOneFourInteractionScore>
-0.954894 

> <ConfScore>
0.964148 

> <ConfScorePBest>
0.00239401 

> <ConfTolerance>
0.192088 

$$$$
*****
  PyMOL2.5          3D                             0

 15 14  0  0  0  0  0  0  0  0999 V2000
    4.2114    5.3148    0.4772 C   0  0  0  1  0  0  0  0  0  0  0  0
    2.9069    5.5785   -0.1181 C   0  0  0  1  0  0  0  0  0  0  0  0
    4.4433    4.2728    1.0776 O   0  0  0  1  0  0  0  0  0  0  0  0
    2.5657    6.6452   -0.6903 C   0  0  0  1  0  0  0  0  0  0  0  0
    5.0858    6.2651    0.3159 O   0  0  0  1  0  0  0  0  0  0  0  0
    1.2709    7.3928   -0.8650 C   0  0  0  1  0  0  0  0  0  0  0  0
    1.4598    8.7809   -1.4549 C   0  0  0  1  0  0  0  0  0  0  0  0
    2.1978    4.8196   -0.0649 H   0  0  0  1  0  0  0  0  0  0  0  0
    3.3662    7.1230   -1.1513 H   0  0  0  1  0  0  0  0  0  0  0  0
    4.6313    7.0926    0.1419 H   0  0  0  1  0  0  0  0  0  0  0  0
    0.8022    7.4903    0.0919 H   0  0  0  1  0  0  0  0  0  0  0  0
    0.6373    6.8289   -1.5172 H   0  0  0  1  0  0  0  0  0  0  0  0
    0.6640    9.4183   -1.1302 H   0  0  0  1  0  0  0  0  0  0  0  0
    1.4530    8.7182   -2.5230 H   0  0  0  1  0  0  0  0  0  0  0  0
    2.3953    9.1834   -1.1267 H   0  0  0  1  0  0  0  0  0  0  0  0
  1  2  1  0  0  0  0
  1  3  2  0  0  0  0
  1  5  1  0  0  0  0
  2  4  2  0  0  0  0
  2  8  1  0  0  0  0
  4  6  1  0  0  0  0
  4  9  1  0  0  0  0
  5 10  1  0  0  0  0
  6  7  1  0  0  0  0
  6 11  1  0  0  0  0
  6 12  1  0  0  0  0
  7 13  1  0  0  0  0
  7 14  1  0  0  0  0
  7 15  1  0  0  0  0
M  END
> <ConfClashScore>
0 

> <ConfOneFourInteractionScore>
-0.965547 

> <ConfScore>
1.01342 

> <ConfScorePBest>
0.00236553 

> <ConfTolerance>
0.346264 

$$$$
*****
  PyMOL2.5          3D                             0

 15 14  0  0  0  0  0  0  0  0999 V2000
    4.3016    5.8618    0.2174 C   0  0  0  1  0  0  0  0  0  0  0  0
    2.9891    5.8343   -0.4168 C   0  0  0  1  0  0  0  0  0  0  0  0
    4.9120    6.9106    0.3825 O   0  0  0  1  0  0  0  0  0  0  0  0
    2.2034    6.8912   -0.6193 C   0  0  0  1  0  0  0  0  0  0  0  0
    4.7542    4.6977    0.5830 O   0  0  0  1  0  0  0  0  0  0  0  0
    0.7052    6.7592   -0.6274 C   0  0  0  1  0  0  0  0  0  0  0  0
    0.1362    5.8612   -1.7138 C   0  0  0  1  0  0  0  0  0  0  0  0
    2.6358    4.9106   -0.7386 H   0  0  0  1  0  0  0  0  0  0  0  0
    2.6342    7.8249   -0.7746 H   0  0  0  1  0  0  0  0  0  0  0  0
    5.5436    4.8141    1.1168 H   0  0  0  1  0  0  0  0  0  0  0  0
    0.2885    7.7365   -0.7551 H   0  0  0  1  0  0  0  0  0  0  0  0
    0.4036    6.3633    0.3197 H   0  0  0  1  0  0  0  0  0  0  0  0
   -0.9231    5.7767   -1.5888 H   0  0  0  1  0  0  0  0  0  0  0  0
    0.5819    4.8910   -1.6439 H   0  0  0  1  0  0  0  0  0  0  0  0
    0.3492    6.2838   -2.6734 H   0  0  0  1  0  0  0  0  0  0  0  0
  1  2  1  0  0  0  0
  1  3  2  0  0  0  0
  1  5  1  0  0  0  0
  2  4  2  0  0  0  0
  2  8  1  0  0  0  0
  4  6  1  0  0  0  0
  4  9  1  0  0  0  0
  5 10  1  0  0  0  0
  6  7  1  0  0  0  0
  6 11  1  0  0  0  0
  6 12  1  0  0  0  0
  7 13  1  0  0  0  0
  7 14  1  0  0  0  0
  7 15  1  0  0  0  0
M  END
> <ConfClashScore>
0 

> <ConfOneFourInteractionScore>
-0.981881 

> <ConfScore>
1.01762 

> <ConfScorePBest>
0.00233705 

> <ConfTolerance>
0.314022 

$$$$
*****
  PyMOL2.5          3D                             0

 15 14  0  0  0  0  0  0  0  0999 V2000
    4.2823    5.4586    0.1496 C   0  0  0  1  0  0  0  0  0  0  0  0
    2.9364    6.0206    0.1491 C   0  0  0  1  0  0  0  0  0  0  0  0
    4.7052    4.7185   -0.7171 O   0  0  0  1  0  0  0  0  0  0  0  0
    2.2976    6.3292   -0.9542 C   0  0  0  1  0  0  0  0  0  0  0  0
    5.0105    5.8276    1.1853 O   0  0  0  1  0  0  0  0  0  0  0  0
    1.2923    7.4295   -1.0811 C   0  0  0  1  0  0  0  0  0  0  0  0
    1.8351    8.6513   -1.8042 C   0  0  0  1  0  0  0  0  0  0  0  0
    2.4638    6.1833    1.0610 H   0  0  0  1  0  0  0  0  0  0  0  0
    2.5055    5.7670   -1.8040 H   0  0  0  1  0  0  0  0  0  0  0  0
    5.1855    6.7701    1.1344 H   0  0  0  1  0  0  0  0  0  0  0  0
    0.9838    7.7238   -0.0997 H   0  0  0  1  0  0  0  0  0  0  0  0
    0.4485    7.0589   -1.6247 H   0  0  0  1  0  0  0  0  0  0  0  0
    2.1673    8.3697   -2.7816 H   0  0  0  1  0  0  0  0  0  0  0  0
    2.6567    9.0569   -1.2516 H   0  0  0  1  0  0  0  0  0  0  0  0
    1.0633    9.3876   -1.8886 H   0  0  0  1  0  0  0  0  0  0  0  0
  1  2  1  0  0  0  0
  1  3  2  0  0  0  0
  1  5  1  0  0  0  0
  2  4  2  0  0  0  0
  2  8  1  0  0  0  0
  4  6  1  0  0  0  0
  4  9  1  0  0  0  0
  5 10  1  0  0  0  0
  6  7  1  0  0  0  0
  6 11  1  0  0  0  0
  6 12  1  0  0  0  0
  7 13  1  0  0  0  0
  7 14  1  0  0  0  0
  7 15  1  0  0  0  0
M  END
> <ConfClashScore>
0 

> <ConfOneFourInteractionScore>
-0.989347 

> <ConfScore>
1.02035 

> <ConfScorePBest>
0.00230857 

> <ConfTolerance>
0.188634 

$$$$
*****
  PyMOL2.5          3D                             0

 15 14  0  0  0  0  0  0  0  0999 V2000
    4.1583    5.5946    0.4790 C   0  0  0  1  0  0  0  0  0  0  0  0
    3.0653    5.7809   -0.4685 C   0  0  0  1  0  0  0  0  0  0  0  0
    3.9547    5.8801    1.6728 O   0  0  0  1  0  0  0  0  0  0  0  0
    2.1875    6.7460   -0.3554 C   0  0  0  1  0  0  0  0  0  0  0  0
    5.2490    5.1512    0.0173 O   0  0  0  1  0  0  0  0  0  0  0  0
    0.7572    6.7192   -0.7923 C   0  0  0  1  0  0  0  0  0  0  0  0
    0.2617    5.3821   -1.3187 C   0  0  0  1  0  0  0  0  0  0  0  0
    2.9795    5.1199   -1.2669 H   0  0  0  1  0  0  0  0  0  0  0  0
    2.5210    7.6266    0.0861 H   0  0  0  1  0  0  0  0  0  0  0  0
    5.8066    5.8859   -0.2491 H   0  0  0  1  0  0  0  0  0  0  0  0
    0.6356    7.4452   -1.5688 H   0  0  0  1  0  0  0  0  0  0  0  0
    0.1506    6.9888    0.0470 H   0  0  0  1  0  0  0  0  0  0  0  0
    0.9325    5.0238   -2.0713 H   0  0  0  1  0  0  0  0  0  0  0  0
   -0.7142    5.5045   -1.7401 H   0  0  0  1  0  0  0  0  0  0  0  0
    0.2179    4.6768   -0.5152 H   0  0  0  1  0  0  0  0  0  0  0  0
  1  2  1  0  0  0  0
  1  3  2  0  0  0  0
  1  5  1  0  0  0  0
  2  4  2  0  0  0  0
  2  8  1  0  0  0  0
  4  6  1  0  0  0  0
  4  9  1  0  0  0  0
  5 10  1  0  0  0  0
  6  7  1  0  0  0  0
  6 11  1  0  0  0  0
  6 12  1  0  0  0  0
  7 13  1  0  0  0  0
  7 14  1  0  0  0  0
  7 15  1  0  0  0  0
M  END
> <ConfClashScore>
0 

> <ConfOneFourInteractionScore>
-0.971698 

> <ConfScore>
1.02804 

> <ConfScorePBest>
0.00228009 

> <ConfTolerance>
0.318975 

$$$$
*****
  PyMOL2.5          3D                             0

 15 14  0  0  0  0  0  0  0  0999 V2000
    4.2010    5.3955    0.3277 C   0  0  0  1  0  0  0  0  0  0  0  0
    3.2298    6.4186   -0.0407 C   0  0  0  1  0  0  0  0  0  0  0  0
    3.8510    4.3123    0.7796 O   0  0  0  1  0  0  0  0  0  0  0  0
    2.0631    6.1989   -0.5545 C   0  0  0  1  0  0  0  0  0  0  0  0
    5.4439    5.7307    0.1371 O   0  0  0  1  0  0  0  0  0  0  0  0
    1.2576    7.0466   -1.5024 C   0  0  0  1  0  0  0  0  0  0  0  0
   -0.0777    7.4837   -0.9224 C   0  0  0  1  0  0  0  0  0  0  0  0
    3.4980    7.4099    0.1237 H   0  0  0  1  0  0  0  0  0  0  0  0
    1.6154    5.3042   -0.2707 H   0  0  0  1  0  0  0  0  0  0  0  0
    5.5193    6.6876    0.1234 H   0  0  0  1  0  0  0  0  0  0  0  0
    1.0737    6.4816   -2.3923 H   0  0  0  1  0  0  0  0  0  0  0  0
    1.8259    7.9201   -1.7450 H   0  0  0  1  0  0  0  0  0  0  0  0
   -0.3656    8.4193   -1.3544 H   0  0  0  1  0  0  0  0  0  0  0  0
    0.0133    7.5937    0.1381 H   0  0  0  1  0  0  0  0  0  0  0  0
   -0.8206    6.7458   -1.1425 H   0  0  0  1  0  0  0  0  0  0  0  0
  1  2  1  0  0  0  0
  1  3  2  0  0  0  0
  1  5  1  0  0  0  0
  2  4  2  0  0  0  0
  2  8  1  0  0  0  0
  4  6  1  0  0  0  0
  4  9  1  0  0  0  0
  5 10  1  0  0  0  0
  6  7  1  0  0  0  0
  6 11  1  0  0  0  0
  6 12  1  0  0  0  0
  7 13  1  0  0  0  0
  7 14  1  0  0  0  0
  7 15  1  0  0  0  0
M  END
> <ConfClashScore>
0 

> <ConfOneFourInteractionScore>
-0.989347 

> <ConfScore>
1.06074 

> <ConfScorePBest>
0.00225161 

> <ConfTolerance>
0.272578 

$$$$
*****
  PyMOL2.5          3D                             0

 15 14  0  0  0  0  0  0  0  0999 V2000
    4.2320    5.3297    0.3685 C   0  0  0  1  0  0  0  0  0  0  0  0
    2.8615    5.7093    0.0470 C   0  0  0  1  0  0  0  0  0  0  0  0
    4.7265    4.2624    0.0619 O   0  0  0  1  0  0  0  0  0  0  0  0
    2.5040    6.5538   -0.8878 C   0  0  0  1  0  0  0  0  0  0  0  0
    4.8977    6.2566    1.0294 O   0  0  0  1  0  0  0  0  0  0  0  0
    1.2951    7.4507   -0.8858 C   0  0  0  1  0  0  0  0  0  0  0  0
    0.2941    7.1032   -1.9756 C   0  0  0  1  0  0  0  0  0  0  0  0
    2.1029    5.2719    0.6081 H   0  0  0  1  0  0  0  0  0  0  0  0
    3.1223    6.6110   -1.7220 H   0  0  0  1  0  0  0  0  0  0  0  0
    4.9371    7.0590    0.5039 H   0  0  0  1  0  0  0  0  0  0  0  0
    1.6196    8.4600   -1.0306 H   0  0  0  1  0  0  0  0  0  0  0  0
    0.8087    7.3646    0.0634 H   0  0  0  1  0  0  0  0  0  0  0  0
    0.7184    7.3218   -2.9332 H   0  0  0  1  0  0  0  0  0  0  0  0
   -0.5959    7.6815   -1.8396 H   0  0  0  1  0  0  0  0  0  0  0  0
    0.0550    6.0617   -1.9210 H   0  0  0  1  0  0  0  0  0  0  0  0
  1  2  1  0  0  0  0
  1  3  2  0  0  0  0
  1  5  1  0  0  0  0
  2  4  2  0  0  0  0
  2  8  1  0  0  0  0
  4  6  1  0  0  0  0
  4  9  1  0  0  0  0
  5 10  1  0  0  0  0
  6  7  1  0  0  0  0
  6 11  1  0  0  0  0
  6 12  1  0  0  0  0
  7 13  1  0  0  0  0
  7 14  1  0  0  0  0
  7 15  1  0  0  0  0
M  END
> <ConfClashScore>
0 

> <ConfOneFourInteractionScore>
-0.989347 

> <ConfScore>
1.11786 

> <ConfScorePBest>
0.00222313 

> <ConfTolerance>
0.188127 

$$$$
*****
  PyMOL2.5          3D                             0

 15 14  0  0  0  0  0  0  0  0999 V2000
    4.2811    5.3554    0.2829 C   0  0  0  1  0  0  0  0  0  0  0  0
    2.9126    5.8186    0.0878 C   0  0  0  1  0  0  0  0  0  0  0  0
    4.6891    4.3372   -0.2410 O   0  0  0  1  0  0  0  0  0  0  0  0
    2.4675    6.4703   -0.9652 C   0  0  0  1  0  0  0  0  0  0  0  0
    5.0084    6.1137    1.0509 O   0  0  0  1  0  0  0  0  0  0  0  0
    1.3467    7.4733   -0.9016 C   0  0  0  1  0  0  0  0  0  0  0  0
    1.7928    8.8868   -1.2384 C   0  0  0  1  0  0  0  0  0  0  0  0
    2.2297    5.6167    0.8457 H   0  0  0  1  0  0  0  0  0  0  0  0
    2.9118    6.2833   -1.8866 H   0  0  0  1  0  0  0  0  0  0  0  0
    4.8323    7.0358    0.8502 H   0  0  0  1  0  0  0  0  0  0  0  0
    0.9431    7.4706    0.0893 H   0  0  0  1  0  0  0  0  0  0  0  0
    0.5881    7.1807   -1.5971 H   0  0  0  1  0  0  0  0  0  0  0  0
    2.5694    9.1860   -0.5659 H   0  0  0  1  0  0  0  0  0  0  0  0
    0.9623    9.5547   -1.1436 H   0  0  0  1  0  0  0  0  0  0  0  0
    2.1607    8.9146   -2.2428 H   0  0  0  1  0  0  0  0  0  0  0  0
  1  2  1  0  0  0  0
  1  3  2  0  0  0  0
  1  5  1  0  0  0  0
  2  4  2  0  0  0  0
  2  8  1  0  0  0  0
  4  6  1  0  0  0  0
  4  9  1  0  0  0  0
  5 10  1  0  0  0  0
  6  7  1  0  0  0  0
  6 11  1  0  0  0  0
  6 12  1  0  0  0  0
  7 13  1  0  0  0  0
  7 14  1  0  0  0  0
  7 15  1  0  0  0  0
M  END
> <ConfClashScore>
0 

> <ConfOneFourInteractionScore>
-0.989347 

> <ConfScore>
1.15095 

> <ConfScorePBest>
0.00219465 

> <ConfTolerance>
0.506786 

$$$$
*****
  PyMOL2.5          3D                             0

 15 14  0  0  0  0  0  0  0  0999 V2000
    4.3116    5.6452    0.0921 C   0  0  0  1  0  0  0  0  0  0  0  0
    2.8876    5.9541    0.0438 C   0  0  0  1  0  0  0  0  0  0  0  0
    4.7923    4.7322   -0.5677 O   0  0  0  1  0  0  0  0  0  0  0  0
    2.2675    6.4926   -0.9556 C   0  0  0  1  0  0  0  0  0  0  0  0
    5.0083    6.4101    0.8815 O   0  0  0  1  0  0  0  0  0  0  0  0
    1.0587    7.3898   -0.9637 C   0  0  0  1  0  0  0  0  0  0  0  0
    0.1609    7.1683   -2.1700 C   0  0  0  1  0  0  0  0  0  0  0  0
    2.3218    5.7215    0.8849 H   0  0  0  1  0  0  0  0  0  0  0  0
    2.6626    6.2733   -1.8923 H   0  0  0  1  0  0  0  0  0  0  0  0
    5.3688    5.8855    1.6001 H   0  0  0  1  0  0  0  0  0  0  0  0
    1.3898    8.4073   -0.9678 H   0  0  0  1  0  0  0  0  0  0  0  0
    0.4900    7.2028   -0.0769 H   0  0  0  1  0  0  0  0  0  0  0  0
   -0.3494    6.2333   -2.0686 H   0  0  0  1  0  0  0  0  0  0  0  0
    0.7557    7.1551   -3.0594 H   0  0  0  1  0  0  0  0  0  0  0  0
   -0.5556    7.9606   -2.2312 H   0  0  0  1  0  0  0  0  0  0  0  0
  1  2  1  0  0  0  0
  1  3  2  0  0  0  0
  1  5  1  0  0  0  0
  2  4  2  0  0  0  0
  2  8  1  0  0  0  0
  4  6  1  0  0  0  0
  4  9  1  0  0  0  0
  5 10  1  0  0  0  0
  6  7  1  0  0  0  0
  6 11  1  0  0  0  0
  6 12  1  0  0  0  0
  7 13  1  0  0  0  0
  7 14  1  0  0  0  0
  7 15  1  0  0  0  0
M  END
> <ConfClashScore>
0 

> <ConfOneFourInteractionScore>
-0.989347 

> <ConfScore>
1.29419 

> <ConfScorePBest>
0.00216617 

> <ConfTolerance>
0.648329 

$$$$
