*****
 OpenBabel01082522013D

 15 14  0  0  0  0  0  0  0  0999 V2000
    0.9326   -0.0396    0.0699 C   0  0  0  0  0  0  0  0  0  0  0  0
    0.2998    1.0160    0.8853 C   0  0  0  0  0  0  0  0  0  0  0  0
    0.3070   -1.0199   -0.3015 O   0  0  0  0  0  0  0  0  0  0  0  0
    0.9053    1.9445    1.6422 C   0  0  0  0  0  0  0  0  0  0  0  0
    2.2186    0.1794   -0.2588 O   0  0  0  0  0  0  0  0  0  0  0  0
    0.1373    2.9512    2.4566 C   0  0  0  0  0  0  0  0  0  0  0  0
    0.4670    4.3730    2.0332 C   0  0  0  0  0  0  0  0  0  0  0  0
   -0.7867    0.9549    0.8629 H   0  0  0  0  0  0  0  0  0  0  0  0
    1.9831    1.9913    1.7394 H   0  0  0  0  0  0  0  0  0  0  0  0
    2.5640    1.0456    0.0150 H   0  0  0  0  0  0  0  0  0  0  0  0
    0.3901    2.8165    3.5156 H   0  0  0  0  0  0  0  0  0  0  0  0
   -0.9433    2.7909    2.3652 H   0  0  0  0  0  0  0  0  0  0  0  0
    1.5327    4.5890    2.1650 H   0  0  0  0  0  0  0  0  0  0  0  0
   -0.0997    5.0895    2.6365 H   0  0  0  0  0  0  0  0  0  0  0  0
    0.2125    4.5402    0.9810 H   0  0  0  0  0  0  0  0  0  0  0  0
  2  1  1  0  0  0  0
  2  8  1  0  0  0  0
  3  1  2  0  0  0  0
  4  2  2  0  0  0  0
  4  9  1  0  0  0  0
  5  1  1  0  0  0  0
  5 10  1  0  0  0  0
  6  4  1  0  0  0  0
  6 11  1  0  0  0  0
  6 12  1  0  0  0  0
  7  6  1  0  0  0  0
  7 13  1  0  0  0  0
  7 14  1  0  0  0  0
  7 15  1  0  0  0  0
M  END
$$$$
