REMARK  Name = *****
REMARK  4 active torsions:
REMARK  status: ('A' for Active; 'I' for Inactive)
REMARK    1  A    between atoms: C_1  and  C_2
REMARK    2  A    between atoms: C_1  and  O_5
REMARK    3  A    between atoms: C_4  and  C_6
REMARK    4  A    between atoms: C_6  and  C_7
REMARK                            x       y       z     vdW  Elec       q    Type
REMARK                         _______ _______ _______ _____ _____    ______ ____
ROOT
ATOM      1  C   UNL     1       0.933  -0.040   0.070  0.00  0.00    +0.000 C 
ATOM      3  O   UNL     1       0.307  -1.020  -0.301  0.00  0.00    +0.000 OA
ENDROOT
BRANCH   1   2
ATOM      2  C   UNL     1       0.300   1.016   0.885  0.00  0.00    +0.000 C 
ATOM      4  C   UNL     1       0.905   1.944   1.642  0.00  0.00    +0.000 C 
BRANCH   4   6
ATOM      6  C   UNL     1       0.137   2.951   2.457  0.00  0.00    +0.000 C 
ATOM      7  C   UNL     1       0.467   4.373   2.033  0.00  0.00    +0.000 C 
ENDBRANCH   4   6
ENDBRANCH   1   2
BRANCH   1   5
ATOM      5  O   UNL     1       2.219   0.179  -0.259  0.00  0.00    +0.000 OA
ATOM      8  H   UNL     1       2.564   1.046   0.015  0.00  0.00    +0.000 HD
ENDBRANCH   1   5
TORSDOF 3
